
**** 05/26/24 11:46:08 ***** PSpice 23.1.0 (6 March 2024) ***** ID# 0 ********

 ** Profile: "SCHEMATIC1-Performace Analysis"  [ C:\Users\Lenovo\Desktop\final grade cad project\Final Grade CAD Project-PSpiceFiles\


 ****     CIRCUIT DESCRIPTION


******************************************************************************




** Creating circuit file "Performace Analysis.cir" 
** WARNING: THIS AUTOMATICALLY GENERATED FILE MAY BE OVERWRITTEN BY SUBSEQUENT SIMULATIONS

*Libraries: 
* Profile Libraries :
* Local Libraries :
* From [PSPICE NETLIST] section of C:\Users\Lenovo\AppData\Roaming\SPB_Data\cdssetup\OrCAD_PSpice\23.1.0\PSpice.ini file:
.lib "nom.lib" 

*Analysis directives: 
.TRAN  0 1000ns 0 
.MC 100 TRAN V([OUT]) YMAX OUTPUT ALL 
.OPTIONS DISTRIBUTION GAUSS
.OPTIONS ADVCONV
.PROBE64 V(alias(*)) I(alias(*)) W(alias(*)) D(alias(*)) NOISE(alias(*)) 
.INC "..\SCHEMATIC1.net" 



**** INCLUDING SCHEMATIC1.net ****
* source FINAL GRADE CAD PROJECT
.EXTERNAL OUTPUT Vcc
R_R13         N36511 N36339 R_R13 2.43K TC=0,0 
.model        R_R13 RES R=1 DEV=1% TC1=0 TC2=0
R_R8         N36491 N36087  1.43K TC=0,0 
R_R9         N36087 N36097 R_R9 301 TC=0,0 
.model        R_R9 RES R=1 DEV=1% TC1=0 TC2=0
X_U1         N36555 N36167 VCC 0 N36167 uA741
R_R7         N36483 N36491 R_R7 1k TC=0,0 
.model        R_R7 RES R=1 DEV=1% TC1=0 TC2=0
V_V1         VCC 0 14V
R_R2         VCC N36689 R_R2 10.5k TC=0,0 
.model        R_R2 RES R=1 DEV=1% TC1=0 TC2=0
R_R4         N36823 0 R_R4 1.54K TC=0,0 
.model        R_R4 RES R=1 DEV=1% TC1=0 TC2=0
R_R6         N361310 N36179 R_R6 301 TC=0,0 
.model        R_R6 RES R=1 DEV=1% TC1=0 TC2=0
R_R17         OUT N37147  6650 TC=0,0 
R_Relay         N37039 VCC  480 TC=0,0 
R_R12         N36339 VCC R_R12 4.12K TC=0,0 
.model        R_R12 RES R=1 DEV=1% TC1=0 TC2=0
X_U3         N36689 N36483 VCC 0 N36483 uA741
R_R16         N36983 VCC  590 TC=0,0 
X_U2         N36179 N36491 VCC 0 N36087 uA741
R_Rsesnsor         N35941 0  {Rs} TC=0,0 
D_led         N36983 N37039 LS_3336-TYP 
R_R18         VCC N35941  75k TC=0,0 
R_R5         N36167 N361310 R_R5 287 TC=0,0 
.model        R_R5 RES R=1 DEV=1% TC1=0 TC2=0
V_V3         N36555 0  
+PULSE 0 14 0 10m 10m 0 20m
R_R11         N35971 OUT  1k TC=0,0 
Q_Q2         N37039 N37147 0 Q2N2222A/ZTX 
R_R14         N36511 N36641 R_R14 4.75K TC=0,0 
.model        R_R14 RES R=1 DEV=1% TC1=0 TC2=0
X_U4         N35971 N36511 VCC 0 OUT uA741
R_R15         N36641 0 R_R15 2.8K TC=0,0 
.model        R_R15 RES R=1 DEV=1% TC1=0 TC2=0
R_R3         N36689 N36823 R_R3 1.96K TC=0,0 
.model        R_R3 RES R=1 DEV=1% TC1=0 TC2=0
R_R10         N36097 N35971 R_R10 274 TC=0,0 
.model        R_R10 RES R=1 DEV=1% TC1=0 TC2=0
.PARAM  rs=75k

**** RESUMING "Performace Analysis.cir" ****
.END

**** 05/26/24 11:46:08 ***** PSpice 23.1.0 (6 March 2024) ***** ID# 0 ********

 ** Profile: "SCHEMATIC1-Performace Analysis"  [ C:\Users\Lenovo\Desktop\final grade cad project\Final Grade CAD Project-PSpiceFiles\


 ****     Diode MODEL PARAMETERS


******************************************************************************




               LS_3336-TYP     X_U1.dx         X_U1.dy         X_U3.dx         
          IS  980.130000E-24  800.000000E-18  800.000000E-18  800.000000E-18 
           N    1.6749                                                       
         IKF    7.140200E-03                                                 
          RS    1.6217          1               1.000000E-03    1            
         CJO                                   10.000000E-12                 


               X_U3.dy         X_U2.dx         X_U2.dy         X_U4.dx         
          IS  800.000000E-18  800.000000E-18  800.000000E-18  800.000000E-18 
          RS    1.000000E-03    1               1.000000E-03    1            
         CJO   10.000000E-12                   10.000000E-12                 


               X_U4.dy         
          IS  800.000000E-18 
          RS    1.000000E-03 
         CJO   10.000000E-12 


**** 05/26/24 11:46:08 ***** PSpice 23.1.0 (6 March 2024) ***** ID# 0 ********

 ** Profile: "SCHEMATIC1-Performace Analysis"  [ C:\Users\Lenovo\Desktop\final grade cad project\Final Grade CAD Project-PSpiceFiles\


 ****     BJT MODEL PARAMETERS


******************************************************************************




               Q2N2222A/ZTX    X_U1.qx         X_U3.qx         X_U2.qx         
               NPN             NPN             NPN             NPN             
       LEVEL    1               1               1               1            
          IS   30.611000E-15  800.000000E-18  800.000000E-18  800.000000E-18 
          BF  220              93.75           93.75           93.75         
          NF    1.00124         1               1               1            
         VAF  104                                                            
         IKF     .52                                                         
         ISE    7.500000E-15                                                 
          NE    1.41                                                         
          BR    4               1               1               1            
          NR    1.005           1               1               1            
         VAR   28                                                            
         IKR     .24                                                         
         ISC   10.652500E-12                                                 
          NC    1.3728                                                       
         ISS    0               0               0               0            
          RB     .13                                                         
          RE     .22            0               0               0            
          RC     .12            0               0               0            
         CJE   27.010000E-12    0               0               0            
         VJE     .75             .75             .75             .75         
         CJC    9.120000E-12    0               0               0            
         VJC     .4089           .75             .75             .75         
         MJC     .3508           .33             .33             .33         
        XCJC    1               1               1               1            
         CJS    0               0               0               0            
         VJS     .75             .75             .75             .75         
          TF  325.000000E-12                                                 
          TR  100.000000E-09                                                 
          KF    0               0               0               0            
          AF    1               1               1               1            
          CN    2.42            2.42            2.42            2.42         
           D     .87             .87             .87             .87         


               X_U4.qx         
               NPN             
       LEVEL    1            
          IS  800.000000E-18 
          BF   93.75         
          NF    1            
          BR    1            
          NR    1            
         ISS    0            
          RE    0            
          RC    0            
         CJE    0            
         VJE     .75         
         CJC    0            
         VJC     .75         
         MJC     .33         
        XCJC    1            
         CJS    0            
         VJS     .75         
          KF    0            
          AF    1            
          CN    2.42         
           D     .87         


**** 05/26/24 11:46:08 ***** PSpice 23.1.0 (6 March 2024) ***** ID# 0 ********

 ** Profile: "SCHEMATIC1-Performace Analysis"  [ C:\Users\Lenovo\Desktop\final grade cad project\Final Grade CAD Project-PSpiceFiles\


 ****     Resistor MODEL PARAMETERS


******************************************************************************




               R_R13           R_R9            R_R7            R_R2            
           R    1               1               1               1            


               R_R4            R_R6            R_R12           R_R5            
           R    1               1               1               1            


               R_R14           R_R15           R_R3            R_R10           
           R    1               1               1               1            


**** 05/26/24 11:46:08 ***** PSpice 23.1.0 (6 March 2024) ***** ID# 0 ********

 ** Profile: "SCHEMATIC1-Performace Analysis"  [ C:\Users\Lenovo\Desktop\final grade cad project\Final Grade CAD Project-PSpiceFiles\


 ****     INITIAL TRANSIENT SOLUTION       TEMPERATURE =   27.000 DEG C

                      MONTE CARLO NOMINAL

******************************************************************************



 NODE   VOLTAGE     NODE   VOLTAGE     NODE   VOLTAGE     NODE   VOLTAGE


(  OUT)     .1837  (  VCC)   14.0000  (N35941)    7.0000 (N35971)     .1843     

(N36087)     .1846 (N36097)     .1845 (N36167)     .1837 (N36179)     .1837     

(N36339)    9.9089 (N36483)    3.4999 (N36491)    2.1355 (N36511)    7.4959     

(N36555)    0.0000 (N36641)    2.7799 (N36689)    3.4998 (N36823)    1.5399     

(N36983)   14.0000 (N37039)   14.0000 (N37147)     .1837 (X_U1.6)    1.4330     

(X_U1.7)   -1.8465 (X_U1.8)   -1.8465 (X_U1.9)    0.0000 (X_U2.6)    1.4554     

(X_U2.7)   -1.8456 (X_U2.8)   -1.8456 (X_U2.9)    0.0000 (X_U3.6) 310.3E-06     

(X_U3.7)    3.5682 (X_U3.8)    3.5682 (X_U3.9)    0.0000 (X_U4.6)    1.4988     

(X_U4.7)   -1.8465 (X_U4.8)   -1.8465 (X_U4.9)    0.0000 (N361310)     .1837    

(X_U1.10)    -.4538                   (X_U1.11)   13.9240                       

(X_U1.12)   14.0000                   (X_U1.13)    -.4270                       

(X_U1.14)    -.4537                   (X_U1.53)   13.0000                       

(X_U1.54)    1.0000                   (X_U1.90)  -40.6040                       

(X_U1.91)   40.0000                   (X_U1.92)  -40.0000                       

(X_U1.99)    7.0000                   (X_U2.10)    1.4974                       

(X_U2.11)   13.9230                   (X_U2.12)   14.0000                       

(X_U2.13)    1.5244                   (X_U2.14)    1.4974                       

(X_U2.53)   13.0000                   (X_U2.54)    1.0000                       

(X_U2.90)  -40.6050                   (X_U2.91)   40.0000                       

(X_U2.92)  -40.0000                   (X_U2.99)    7.0000                       

(X_U3.10)    2.8929                   (X_U3.11)   13.9610                       

(X_U3.12)   13.9610                   (X_U3.13)    2.9066                       

(X_U3.14)    2.9065                   (X_U3.53)   13.0000                       

(X_U3.54)    1.0000                   (X_U3.90)    1.3645                       

(X_U3.91)   40.0000                   (X_U3.92)  -40.0000                       

(X_U3.99)    7.0000                   (X_U4.10)    6.8563                       

(X_U4.11)   13.9200                   (X_U4.12)   14.0000                       

(X_U4.13)    6.8841                   (X_U4.14)    6.8563                       

(X_U4.53)   13.0000                   (X_U4.54)    1.0000                       

(X_U4.90)  -40.6060                   (X_U4.91)   40.0000                       

(X_U4.92)  -40.0000                   (X_U4.99)    7.0000                   




    VOLTAGE SOURCE CURRENTS
    NAME         CURRENT

    V_V1        -5.229E-03
    V_V3        -3.403E-10
    X_U1.vb      1.433E-05
    X_U1.vc      1.282E-11
    X_U1.ve     -4.060E-02
    X_U1.vlim   -4.060E-02
    X_U1.vlp    -8.060E-11
    X_U1.vln     1.113E-05
    X_U3.vb      3.103E-09
    X_U3.vc      9.501E-12
    X_U3.ve      2.364E-12
    X_U3.vlim    1.365E-03
    X_U3.vlp    -3.864E-11
    X_U3.vln    -4.137E-11
    X_U2.vb      1.455E-05
    X_U2.vc      1.282E-11
    X_U2.ve     -3.924E-02
    X_U2.vlim   -4.061E-02
    X_U2.vlp    -8.061E-11
    X_U2.vln     1.151E-05
    X_U4.vb      1.499E-05
    X_U4.vc      1.282E-11
    X_U4.ve     -4.061E-02
    X_U4.vlim   -4.061E-02
    X_U4.vlp    -8.061E-11
    X_U4.vln     1.183E-05

    TOTAL POWER DISSIPATION   1.92E-01  WATTS


**** 05/26/24 11:46:08 ***** PSpice 23.1.0 (6 March 2024) ***** ID# 0 ********

 ** Profile: "SCHEMATIC1-Performace Analysis"  [ C:\Users\Lenovo\Desktop\final grade cad project\Final Grade CAD Project-PSpiceFiles\


 ****     INITIAL TRANSIENT SOLUTION       TEMPERATURE =   27.000 DEG C

                      MONTE CARLO PASS 2

******************************************************************************



 NODE   VOLTAGE     NODE   VOLTAGE     NODE   VOLTAGE     NODE   VOLTAGE


(  OUT)     .1837  (  VCC)   14.0000  (N35941)    7.0000 (N35971)     .1843     

(N36087)     .1846 (N36097)     .1844 (N36167)     .1837 (N36179)     .1837     

(N36339)    9.8991 (N36483)    3.4923 (N36491)    2.1248 (N36511)    7.4508     

(N36555)    0.0000 (N36641)    2.7433 (N36689)    3.4922 (N36823)    1.5239     

(N36983)   14.0000 (N37039)   14.0000 (N37147)     .1837 (X_U1.6)    1.4330     

(X_U1.7)   -1.8465 (X_U1.8)   -1.8465 (X_U1.9)    0.0000 (X_U2.6)    1.4553     

(X_U2.7)   -1.8456 (X_U2.8)   -1.8456 (X_U2.9)    0.0000 (X_U3.6) 311.2E-06     

(X_U3.7)    3.5602 (X_U3.8)    3.5602 (X_U3.9)    0.0000 (X_U4.6)    1.4985     

(X_U4.7)   -1.8465 (X_U4.8)   -1.8465 (X_U4.9)    0.0000 (N361310)     .1837    

(X_U1.10)    -.4538                   (X_U1.11)   13.9240                       

(X_U1.12)   14.0000                   (X_U1.13)    -.4270                       

(X_U1.14)    -.4537                   (X_U1.53)   13.0000                       

(X_U1.54)    1.0000                   (X_U1.90)  -40.6040                       

(X_U1.91)   40.0000                   (X_U1.92)  -40.0000                       

(X_U1.99)    7.0000                   (X_U2.10)    1.4867                       

(X_U2.11)   13.9230                   (X_U2.12)   14.0000                       

(X_U2.13)    1.5138                   (X_U2.14)    1.4867                       

(X_U2.53)   13.0000                   (X_U2.54)    1.0000                       

(X_U2.90)  -40.6050                   (X_U2.91)   40.0000                       

(X_U2.92)  -40.0000                   (X_U2.99)    7.0000                       

(X_U3.10)    2.8853                   (X_U3.11)   13.9610                       

(X_U3.12)   13.9610                   (X_U3.13)    2.8990                       

(X_U3.14)    2.8989                   (X_U3.53)   13.0000                       

(X_U3.54)    1.0000                   (X_U3.90)    1.3570                       

(X_U3.91)   40.0000                   (X_U3.92)  -40.0000                       

(X_U3.99)    7.0000                   (X_U4.10)    6.8112                       

(X_U4.11)   13.9210                   (X_U4.12)   14.0000                       

(X_U4.13)    6.8390                   (X_U4.14)    6.8112                       

(X_U4.53)   13.0000                   (X_U4.54)    1.0000                       

(X_U4.90)  -40.6060                   (X_U4.91)   40.0000                       

(X_U4.92)  -40.0000                   (X_U4.99)    7.0000                   




    VOLTAGE SOURCE CURRENTS
    NAME         CURRENT

    V_V1        -5.221E-03
    V_V3        -3.403E-10
    X_U1.vb      1.433E-05
    X_U1.vc      1.282E-11
    X_U1.ve     -4.060E-02
    X_U1.vlim   -4.060E-02
    X_U1.vlp    -8.060E-11
    X_U1.vln     1.113E-05
    X_U3.vb      3.112E-09
    X_U3.vc      9.508E-12
    X_U3.ve      2.356E-12
    X_U3.vlim    1.357E-03
    X_U3.vlp    -3.864E-11
    X_U3.vln    -4.136E-11
    X_U2.vb      1.455E-05
    X_U2.vc      1.282E-11
    X_U2.ve     -3.925E-02
    X_U2.vlim   -4.061E-02
    X_U2.vlp    -8.061E-11
    X_U2.vln     1.150E-05
    X_U4.vb      1.498E-05
    X_U4.vc      1.282E-11
    X_U4.ve     -4.061E-02
    X_U4.vlim   -4.061E-02
    X_U4.vlp    -8.061E-11
    X_U4.vln     1.183E-05

    TOTAL POWER DISSIPATION   1.92E-01  WATTS


**** 05/26/24 11:46:08 ***** PSpice 23.1.0 (6 March 2024) ***** ID# 0 ********

 ** Profile: "SCHEMATIC1-Performace Analysis"  [ C:\Users\Lenovo\Desktop\final grade cad project\Final Grade CAD Project-PSpiceFiles\


 ****     INITIAL TRANSIENT SOLUTION       TEMPERATURE =   27.000 DEG C

                      MONTE CARLO PASS 3

******************************************************************************



 NODE   VOLTAGE     NODE   VOLTAGE     NODE   VOLTAGE     NODE   VOLTAGE


(  OUT)     .1837  (  VCC)   14.0000  (N35941)    7.0000 (N35971)     .1843     

(N36087)     .1846 (N36097)     .1845 (N36167)     .1837 (N36179)     .1837     

(N36339)    9.8796 (N36483)    3.5113 (N36491)    2.1400 (N36511)    7.4766     

(N36555)    0.0000 (N36641)    2.7927 (N36689)    3.5112 (N36823)    1.5665     

(N36983)   14.0000 (N37039)   14.0000 (N37147)     .1837 (X_U1.6)    1.4330     

(X_U1.7)   -1.8465 (X_U1.8)   -1.8465 (X_U1.9)    0.0000 (X_U2.6)    1.4555     

(X_U2.7)   -1.8456 (X_U2.8)   -1.8456 (X_U2.9)    0.0000 (X_U3.6) 309.2E-06     

(X_U3.7)    3.5797 (X_U3.8)    3.5797 (X_U3.9)    0.0000 (X_U4.6)    1.4987     

(X_U4.7)   -1.8465 (X_U4.8)   -1.8465 (X_U4.9)    0.0000 (N361310)     .1837    

(X_U1.10)    -.4538                   (X_U1.11)   13.9240                       

(X_U1.12)   14.0000                   (X_U1.13)    -.4270                       

(X_U1.14)    -.4537                   (X_U1.53)   13.0000                       

(X_U1.54)    1.0000                   (X_U1.90)  -40.6040                       

(X_U1.91)   40.0000                   (X_U1.92)  -40.0000                       

(X_U1.99)    7.0000                   (X_U2.10)    1.5019                       

(X_U2.11)   13.9230                   (X_U2.12)   14.0000                       

(X_U2.13)    1.5289                   (X_U2.14)    1.5019                       

(X_U2.53)   13.0000                   (X_U2.54)    1.0000                       

(X_U2.90)  -40.6050                   (X_U2.91)   40.0000                       

(X_U2.92)  -40.0000                   (X_U2.99)    7.0000                       

(X_U3.10)    2.9043                   (X_U3.11)   13.9610                       

(X_U3.12)   13.9610                   (X_U3.13)    2.9179                       

(X_U3.14)    2.9179                   (X_U3.53)   13.0000                       

(X_U3.54)    1.0000                   (X_U3.90)    1.3676                       

(X_U3.91)   40.0000                   (X_U3.92)  -40.0000                       

(X_U3.99)    7.0000                   (X_U4.10)    6.8370                       

(X_U4.11)   13.9200                   (X_U4.12)   14.0000                       

(X_U4.13)    6.8648                   (X_U4.14)    6.8370                       

(X_U4.53)   13.0000                   (X_U4.54)    1.0000                       

(X_U4.90)  -40.6060                   (X_U4.91)   40.0000                       

(X_U4.92)  -40.0000                   (X_U4.99)    7.0000                   




    VOLTAGE SOURCE CURRENTS
    NAME         CURRENT

    V_V1        -5.242E-03
    V_V3        -3.403E-10
    X_U1.vb      1.433E-05
    X_U1.vc      1.282E-11
    X_U1.ve     -4.060E-02
    X_U1.vlim   -4.060E-02
    X_U1.vlp    -8.060E-11
    X_U1.vln     1.113E-05
    X_U3.vb      3.092E-09
    X_U3.vc      9.489E-12
    X_U3.ve      2.375E-12
    X_U3.vlim    1.368E-03
    X_U3.vlp    -3.863E-11
    X_U3.vln    -4.137E-11
    X_U2.vb      1.455E-05
    X_U2.vc      1.282E-11
    X_U2.ve     -3.924E-02
    X_U2.vlim   -4.061E-02
    X_U2.vlp    -8.061E-11
    X_U2.vln     1.151E-05
    X_U4.vb      1.499E-05
    X_U4.vc      1.282E-11
    X_U4.ve     -4.061E-02
    X_U4.vlim   -4.061E-02
    X_U4.vlp    -8.061E-11
    X_U4.vln     1.183E-05

    TOTAL POWER DISSIPATION   1.92E-01  WATTS


**** 05/26/24 11:46:08 ***** PSpice 23.1.0 (6 March 2024) ***** ID# 0 ********

 ** Profile: "SCHEMATIC1-Performace Analysis"  [ C:\Users\Lenovo\Desktop\final grade cad project\Final Grade CAD Project-PSpiceFiles\


 ****     INITIAL TRANSIENT SOLUTION       TEMPERATURE =   27.000 DEG C

                      MONTE CARLO PASS 4

******************************************************************************



 NODE   VOLTAGE     NODE   VOLTAGE     NODE   VOLTAGE     NODE   VOLTAGE


(  OUT)     .1837  (  VCC)   14.0000  (N35941)    7.0000 (N35971)     .1843     

(N36087)     .1846 (N36097)     .1845 (N36167)     .1837 (N36179)     .1837     

(N36339)    9.8104 (N36483)    3.5682 (N36491)    2.1788 (N36511)    7.3971     

(N36555)    0.0000 (N36641)    2.7410 (N36689)    3.5681 (N36823)    1.5546     

(N36983)   14.0000 (N37039)   14.0000 (N37147)     .1837 (X_U1.6)    1.4330     

(X_U1.7)   -1.8465 (X_U1.8)   -1.8465 (X_U1.9)    0.0000 (X_U2.6)    1.4558     

(X_U2.7)   -1.8456 (X_U2.8)   -1.8456 (X_U2.9)    0.0000 (X_U3.6) 303.5E-06     

(X_U3.7)    3.6380 (X_U3.8)    3.6380 (X_U3.9)    0.0000 (X_U4.6)    1.4980     

(X_U4.7)   -1.8465 (X_U4.8)   -1.8465 (X_U4.9)    0.0000 (N361310)     .1837    

(X_U1.10)    -.4538                   (X_U1.11)   13.9240                       

(X_U1.12)   14.0000                   (X_U1.13)    -.4270                       

(X_U1.14)    -.4537                   (X_U1.53)   13.0000                       

(X_U1.54)    1.0000                   (X_U1.90)  -40.6040                       

(X_U1.91)   40.0000                   (X_U1.92)  -40.0000                       

(X_U1.99)    7.0000                   (X_U2.10)    1.5407                       

(X_U2.11)   13.9230                   (X_U2.12)   14.0000                       

(X_U2.13)    1.5678                   (X_U2.14)    1.5407                       

(X_U2.53)   13.0000                   (X_U2.54)    1.0000                       

(X_U2.90)  -40.6050                   (X_U2.91)   40.0000                       

(X_U2.92)  -40.0000                   (X_U2.99)    7.0000                       

(X_U3.10)    2.9612                   (X_U3.11)   13.9610                       

(X_U3.12)   13.9610                   (X_U3.13)    2.9748                       

(X_U3.14)    2.9748                   (X_U3.53)   13.0000                       

(X_U3.54)    1.0000                   (X_U3.90)    1.3948                       

(X_U3.91)   40.0000                   (X_U3.92)  -40.0000                       

(X_U3.99)    7.0000                   (X_U4.10)    6.7575                       

(X_U4.11)   13.9210                   (X_U4.12)   14.0000                       

(X_U4.13)    6.7853                   (X_U4.14)    6.7575                       

(X_U4.53)   13.0000                   (X_U4.54)    1.0000                       

(X_U4.90)  -40.6060                   (X_U4.91)   40.0000                       

(X_U4.92)  -40.0000                   (X_U4.99)    7.0000                   




    VOLTAGE SOURCE CURRENTS
    NAME         CURRENT

    V_V1        -5.237E-03
    V_V3        -3.403E-10
    X_U1.vb      1.433E-05
    X_U1.vc      1.282E-11
    X_U1.ve     -4.060E-02
    X_U1.vlim   -4.060E-02
    X_U1.vlp    -8.060E-11
    X_U1.vln     1.113E-05
    X_U3.vb      3.035E-09
    X_U3.vc      9.433E-12
    X_U3.ve      2.432E-12
    X_U3.vlim    1.395E-03
    X_U3.vlp    -3.861E-11
    X_U3.vln    -4.140E-11
    X_U2.vb      1.456E-05
    X_U2.vc      1.282E-11
    X_U2.ve     -3.921E-02
    X_U2.vlim   -4.061E-02
    X_U2.vlp    -8.061E-11
    X_U2.vln     1.151E-05
    X_U4.vb      1.498E-05
    X_U4.vc      1.282E-11
    X_U4.ve     -4.061E-02
    X_U4.vlim   -4.061E-02
    X_U4.vlp    -8.061E-11
    X_U4.vln     1.182E-05

    TOTAL POWER DISSIPATION   1.92E-01  WATTS


**** 05/26/24 11:46:08 ***** PSpice 23.1.0 (6 March 2024) ***** ID# 0 ********

 ** Profile: "SCHEMATIC1-Performace Analysis"  [ C:\Users\Lenovo\Desktop\final grade cad project\Final Grade CAD Project-PSpiceFiles\


 ****     INITIAL TRANSIENT SOLUTION       TEMPERATURE =   27.000 DEG C

                      MONTE CARLO PASS 5

******************************************************************************



 NODE   VOLTAGE     NODE   VOLTAGE     NODE   VOLTAGE     NODE   VOLTAGE


(  OUT)     .1837  (  VCC)   14.0000  (N35941)    7.0000 (N35971)     .1843     

(N36087)     .1846 (N36097)     .1844 (N36167)     .1837 (N36179)     .1837     

(N36339)    9.9304 (N36483)    3.4733 (N36491)    2.1177 (N36511)    7.5239     

(N36555)    0.0000 (N36641)    2.7872 (N36689)    3.4731 (N36823)    1.5429     

(N36983)   14.0000 (N37039)   14.0000 (N37147)     .1837 (X_U1.6)    1.4330     

(X_U1.7)   -1.8465 (X_U1.8)   -1.8465 (X_U1.9)    0.0000 (X_U2.6)    1.4553     

(X_U2.7)   -1.8456 (X_U2.8)   -1.8456 (X_U2.9)    0.0000 (X_U3.6) 313.0E-06     

(X_U3.7)    3.5409 (X_U3.8)    3.5409 (X_U3.9)    0.0000 (X_U4.6)    1.4991     

(X_U4.7)   -1.8465 (X_U4.8)   -1.8465 (X_U4.9)    0.0000 (N361310)     .1837    

(X_U1.10)    -.4538                   (X_U1.11)   13.9240                       

(X_U1.12)   14.0000                   (X_U1.13)    -.4270                       

(X_U1.14)    -.4537                   (X_U1.53)   13.0000                       

(X_U1.54)    1.0000                   (X_U1.90)  -40.6040                       

(X_U1.91)   40.0000                   (X_U1.92)  -40.0000                       

(X_U1.99)    7.0000                   (X_U2.10)    1.4796                       

(X_U2.11)   13.9230                   (X_U2.12)   14.0000                       

(X_U2.13)    1.5066                   (X_U2.14)    1.4796                       

(X_U2.53)   13.0000                   (X_U2.54)    1.0000                       

(X_U2.90)  -40.6050                   (X_U2.91)   40.0000                       

(X_U2.92)  -40.0000                   (X_U2.99)    7.0000                       

(X_U3.10)    2.8662                   (X_U3.11)   13.9610                       

(X_U3.12)   13.9610                   (X_U3.13)    2.8799                       

(X_U3.14)    2.8798                   (X_U3.53)   13.0000                       

(X_U3.54)    1.0000                   (X_U3.90)    1.3521                       

(X_U3.91)   40.0000                   (X_U3.92)  -40.0000                       

(X_U3.99)    7.0000                   (X_U4.10)    6.8843                       

(X_U4.11)   13.9200                   (X_U4.12)   14.0000                       

(X_U4.13)    6.9121                   (X_U4.14)    6.8843                       

(X_U4.53)   13.0000                   (X_U4.54)    1.0000                       

(X_U4.90)  -40.6060                   (X_U4.91)   40.0000                       

(X_U4.92)  -40.0000                   (X_U4.99)    7.0000                   




    VOLTAGE SOURCE CURRENTS
    NAME         CURRENT

    V_V1        -5.233E-03
    V_V3        -3.403E-10
    X_U1.vb      1.433E-05
    X_U1.vc      1.282E-11
    X_U1.ve     -4.060E-02
    X_U1.vlim   -4.060E-02
    X_U1.vlp    -8.060E-11
    X_U1.vln     1.113E-05
    X_U3.vb      3.130E-09
    X_U3.vc      9.528E-12
    X_U3.ve      2.337E-12
    X_U3.vlim    1.352E-03
    X_U3.vlp    -3.865E-11
    X_U3.vln    -4.136E-11
    X_U2.vb      1.455E-05
    X_U2.vc      1.282E-11
    X_U2.ve     -3.925E-02
    X_U2.vlim   -4.061E-02
    X_U2.vlp    -8.061E-11
    X_U2.vln     1.150E-05
    X_U4.vb      1.499E-05
    X_U4.vc      1.282E-11
    X_U4.ve     -4.061E-02
    X_U4.vlim   -4.061E-02
    X_U4.vlp    -8.061E-11
    X_U4.vln     1.183E-05

    TOTAL POWER DISSIPATION   1.92E-01  WATTS


**** 05/26/24 11:46:08 ***** PSpice 23.1.0 (6 March 2024) ***** ID# 0 ********

 ** Profile: "SCHEMATIC1-Performace Analysis"  [ C:\Users\Lenovo\Desktop\final grade cad project\Final Grade CAD Project-PSpiceFiles\


 ****     INITIAL TRANSIENT SOLUTION       TEMPERATURE =   27.000 DEG C

                      MONTE CARLO PASS 6

******************************************************************************



 NODE   VOLTAGE     NODE   VOLTAGE     NODE   VOLTAGE     NODE   VOLTAGE


(  OUT)     .1837  (  VCC)   14.0000  (N35941)    7.0000 (N35971)     .1843     

(N36087)     .1846 (N36097)     .1844 (N36167)     .1837 (N36179)     .1837     

(N36339)    9.8594 (N36483)    3.4794 (N36491)    2.1145 (N36511)    7.4793     

(N36555)    0.0000 (N36641)    2.7660 (N36689)    3.4793 (N36823)    1.5172     

(N36983)   14.0000 (N37039)   14.0000 (N37147)     .1837 (X_U1.6)    1.4330     

(X_U1.7)   -1.8465 (X_U1.8)   -1.8465 (X_U1.9)    0.0000 (X_U2.6)    1.4553     

(X_U2.7)   -1.8456 (X_U2.8)   -1.8456 (X_U2.9)    0.0000 (X_U3.6) 312.5E-06     

(X_U3.7)    3.5469 (X_U3.8)    3.5469 (X_U3.9)    0.0000 (X_U4.6)    1.4987     

(X_U4.7)   -1.8465 (X_U4.8)   -1.8465 (X_U4.9)    0.0000 (N361310)     .1837    

(X_U1.10)    -.4538                   (X_U1.11)   13.9240                       

(X_U1.12)   14.0000                   (X_U1.13)    -.4270                       

(X_U1.14)    -.4537                   (X_U1.53)   13.0000                       

(X_U1.54)    1.0000                   (X_U1.90)  -40.6040                       

(X_U1.91)   40.0000                   (X_U1.92)  -40.0000                       

(X_U1.99)    7.0000                   (X_U2.10)    1.4763                       

(X_U2.11)   13.9230                   (X_U2.12)   14.0000                       

(X_U2.13)    1.5034                   (X_U2.14)    1.4763                       

(X_U2.53)   13.0000                   (X_U2.54)    1.0000                       

(X_U2.90)  -40.6050                   (X_U2.91)   40.0000                       

(X_U2.92)  -40.0000                   (X_U2.99)    7.0000                       

(X_U3.10)    2.8724                   (X_U3.11)   13.9610                       

(X_U3.12)   13.9610                   (X_U3.13)    2.8860                       

(X_U3.14)    2.8860                   (X_U3.53)   13.0000                       

(X_U3.54)    1.0000                   (X_U3.90)    1.3498                       

(X_U3.91)   40.0000                   (X_U3.92)  -40.0000                       

(X_U3.99)    7.0000                   (X_U4.10)    6.8397                       

(X_U4.11)   13.9200                   (X_U4.12)   14.0000                       

(X_U4.13)    6.8676                   (X_U4.14)    6.8397                       

(X_U4.53)   13.0000                   (X_U4.54)    1.0000                       

(X_U4.90)  -40.6060                   (X_U4.91)   40.0000                       

(X_U4.92)  -40.0000                   (X_U4.99)    7.0000                   




    VOLTAGE SOURCE CURRENTS
    NAME         CURRENT

    V_V1        -5.217E-03
    V_V3        -3.403E-10
    X_U1.vb      1.433E-05
    X_U1.vc      1.282E-11
    X_U1.ve     -4.060E-02
    X_U1.vlim   -4.060E-02
    X_U1.vlp    -8.060E-11
    X_U1.vln     1.113E-05
    X_U3.vb      3.125E-09
    X_U3.vc      9.521E-12
    X_U3.ve      2.343E-12
    X_U3.vlim    1.350E-03
    X_U3.vlp    -3.865E-11
    X_U3.vln    -4.135E-11
    X_U2.vb      1.455E-05
    X_U2.vc      1.282E-11
    X_U2.ve     -3.926E-02
    X_U2.vlim   -4.061E-02
    X_U2.vlp    -8.061E-11
    X_U2.vln     1.150E-05
    X_U4.vb      1.499E-05
    X_U4.vc      1.282E-11
    X_U4.ve     -4.061E-02
    X_U4.vlim   -4.061E-02
    X_U4.vlp    -8.061E-11
    X_U4.vln     1.183E-05

    TOTAL POWER DISSIPATION   1.92E-01  WATTS


**** 05/26/24 11:46:08 ***** PSpice 23.1.0 (6 March 2024) ***** ID# 0 ********

 ** Profile: "SCHEMATIC1-Performace Analysis"  [ C:\Users\Lenovo\Desktop\final grade cad project\Final Grade CAD Project-PSpiceFiles\


 ****     INITIAL TRANSIENT SOLUTION       TEMPERATURE =   27.000 DEG C

                      MONTE CARLO PASS 7

******************************************************************************



 NODE   VOLTAGE     NODE   VOLTAGE     NODE   VOLTAGE     NODE   VOLTAGE


(  OUT)     .1837  (  VCC)   14.0000  (N35941)    7.0000 (N35971)     .1843     

(N36087)     .1846 (N36097)     .1844 (N36167)     .1837 (N36179)     .1837     

(N36339)    9.9078 (N36483)    3.4807 (N36491)    2.1172 (N36511)    7.4491     

(N36555)    0.0000 (N36641)    2.7866 (N36689)    3.4806 (N36823)    1.5021     

(N36983)   14.0000 (N37039)   14.0000 (N37147)     .1837 (X_U1.6)    1.4330     

(X_U1.7)   -1.8465 (X_U1.8)   -1.8465 (X_U1.9)    0.0000 (X_U2.6)    1.4553     

(X_U2.7)   -1.8456 (X_U2.8)   -1.8456 (X_U2.9)    0.0000 (X_U3.6) 312.3E-06     

(X_U3.7)    3.5483 (X_U3.8)    3.5483 (X_U3.9)    0.0000 (X_U4.6)    1.4984     

(X_U4.7)   -1.8465 (X_U4.8)   -1.8465 (X_U4.9)    0.0000 (N361310)     .1837    

(X_U1.10)    -.4538                   (X_U1.11)   13.9240                       

(X_U1.12)   14.0000                   (X_U1.13)    -.4270                       

(X_U1.14)    -.4537                   (X_U1.53)   13.0000                       

(X_U1.54)    1.0000                   (X_U1.90)  -40.6040                       

(X_U1.91)   40.0000                   (X_U1.92)  -40.0000                       

(X_U1.99)    7.0000                   (X_U2.10)    1.4791                       

(X_U2.11)   13.9230                   (X_U2.12)   14.0000                       

(X_U2.13)    1.5062                   (X_U2.14)    1.4791                       

(X_U2.53)   13.0000                   (X_U2.54)    1.0000                       

(X_U2.90)  -40.6050                   (X_U2.91)   40.0000                       

(X_U2.92)  -40.0000                   (X_U2.99)    7.0000                       

(X_U3.10)    2.8737                   (X_U3.11)   13.9610                       

(X_U3.12)   13.9610                   (X_U3.13)    2.8873                       

(X_U3.14)    2.8873                   (X_U3.53)   13.0000                       

(X_U3.54)    1.0000                   (X_U3.90)    1.3517                       

(X_U3.91)   40.0000                   (X_U3.92)  -40.0000                       

(X_U3.99)    7.0000                   (X_U4.10)    6.8095                       

(X_U4.11)   13.9210                   (X_U4.12)   14.0000                       

(X_U4.13)    6.8373                   (X_U4.14)    6.8095                       

(X_U4.53)   13.0000                   (X_U4.54)    1.0000                       

(X_U4.90)  -40.6060                   (X_U4.91)   40.0000                       

(X_U4.92)  -40.0000                   (X_U4.99)    7.0000                   




    VOLTAGE SOURCE CURRENTS
    NAME         CURRENT

    V_V1        -5.223E-03
    V_V3        -3.403E-10
    X_U1.vb      1.433E-05
    X_U1.vc      1.282E-11
    X_U1.ve     -4.060E-02
    X_U1.vlim   -4.060E-02
    X_U1.vlp    -8.060E-11
    X_U1.vln     1.113E-05
    X_U3.vb      3.123E-09
    X_U3.vc      9.520E-12
    X_U3.ve      2.345E-12
    X_U3.vlim    1.352E-03
    X_U3.vlp    -3.865E-11
    X_U3.vln    -4.136E-11
    X_U2.vb      1.455E-05
    X_U2.vc      1.282E-11
    X_U2.ve     -3.925E-02
    X_U2.vlim   -4.061E-02
    X_U2.vlp    -8.061E-11
    X_U2.vln     1.150E-05
    X_U4.vb      1.498E-05
    X_U4.vc      1.282E-11
    X_U4.ve     -4.061E-02
    X_U4.vlim   -4.061E-02
    X_U4.vlp    -8.061E-11
    X_U4.vln     1.183E-05

    TOTAL POWER DISSIPATION   1.92E-01  WATTS


**** 05/26/24 11:46:08 ***** PSpice 23.1.0 (6 March 2024) ***** ID# 0 ********

 ** Profile: "SCHEMATIC1-Performace Analysis"  [ C:\Users\Lenovo\Desktop\final grade cad project\Final Grade CAD Project-PSpiceFiles\


 ****     INITIAL TRANSIENT SOLUTION       TEMPERATURE =   27.000 DEG C

                      MONTE CARLO PASS 8

******************************************************************************



 NODE   VOLTAGE     NODE   VOLTAGE     NODE   VOLTAGE     NODE   VOLTAGE


(  OUT)     .1837  (  VCC)   14.0000  (N35941)    7.0000 (N35971)     .1843     

(N36087)     .1846 (N36097)     .1845 (N36167)     .1837 (N36179)     .1837     

(N36339)    9.8821 (N36483)    3.5405 (N36491)    2.1615 (N36511)    7.4384     

(N36555)    0.0000 (N36641)    2.7509 (N36689)    3.5403 (N36823)    1.5710     

(N36983)   14.0000 (N37039)   14.0000 (N37147)     .1837 (X_U1.6)    1.4330     

(X_U1.7)   -1.8465 (X_U1.8)   -1.8465 (X_U1.9)    0.0000 (X_U2.6)    1.4556     

(X_U2.7)   -1.8456 (X_U2.8)   -1.8456 (X_U2.9)    0.0000 (X_U3.6) 306.3E-06     

(X_U3.7)    3.6096 (X_U3.8)    3.6096 (X_U3.9)    0.0000 (X_U4.6)    1.4984     

(X_U4.7)   -1.8465 (X_U4.8)   -1.8465 (X_U4.9)    0.0000 (N361310)     .1837    

(X_U1.10)    -.4538                   (X_U1.11)   13.9240                       

(X_U1.12)   14.0000                   (X_U1.13)    -.4270                       

(X_U1.14)    -.4537                   (X_U1.53)   13.0000                       

(X_U1.54)    1.0000                   (X_U1.90)  -40.6040                       

(X_U1.91)   40.0000                   (X_U1.92)  -40.0000                       

(X_U1.99)    7.0000                   (X_U2.10)    1.5234                       

(X_U2.11)   13.9230                   (X_U2.12)   14.0000                       

(X_U2.13)    1.5504                   (X_U2.14)    1.5234                       

(X_U2.53)   13.0000                   (X_U2.54)    1.0000                       

(X_U2.90)  -40.6050                   (X_U2.91)   40.0000                       

(X_U2.92)  -40.0000                   (X_U2.99)    7.0000                       

(X_U3.10)    2.9334                   (X_U3.11)   13.9610                       

(X_U3.12)   13.9610                   (X_U3.13)    2.9471                       

(X_U3.14)    2.9470                   (X_U3.53)   13.0000                       

(X_U3.54)    1.0000                   (X_U3.90)    1.3827                       

(X_U3.91)   40.0000                   (X_U3.92)  -40.0000                       

(X_U3.99)    7.0000                   (X_U4.10)    6.7988                       

(X_U4.11)   13.9210                   (X_U4.12)   14.0000                       

(X_U4.13)    6.8266                   (X_U4.14)    6.7988                       

(X_U4.53)   13.0000                   (X_U4.54)    1.0000                       

(X_U4.90)  -40.6060                   (X_U4.91)   40.0000                       

(X_U4.92)  -40.0000                   (X_U4.99)    7.0000                   




    VOLTAGE SOURCE CURRENTS
    NAME         CURRENT

    V_V1        -5.236E-03
    V_V3        -3.403E-10
    X_U1.vb      1.433E-05
    X_U1.vc      1.282E-11
    X_U1.ve     -4.060E-02
    X_U1.vlim   -4.060E-02
    X_U1.vlp    -8.060E-11
    X_U1.vln     1.113E-05
    X_U3.vb      3.063E-09
    X_U3.vc      9.460E-12
    X_U3.ve      2.404E-12
    X_U3.vlim    1.383E-03
    X_U3.vlp    -3.862E-11
    X_U3.vln    -4.139E-11
    X_U2.vb      1.456E-05
    X_U2.vc      1.282E-11
    X_U2.ve     -3.922E-02
    X_U2.vlim   -4.061E-02
    X_U2.vlp    -8.061E-11
    X_U2.vln     1.151E-05
    X_U4.vb      1.498E-05
    X_U4.vc      1.282E-11
    X_U4.ve     -4.061E-02
    X_U4.vlim   -4.061E-02
    X_U4.vlp    -8.061E-11
    X_U4.vln     1.182E-05

    TOTAL POWER DISSIPATION   1.92E-01  WATTS


**** 05/26/24 11:46:08 ***** PSpice 23.1.0 (6 March 2024) ***** ID# 0 ********

 ** Profile: "SCHEMATIC1-Performace Analysis"  [ C:\Users\Lenovo\Desktop\final grade cad project\Final Grade CAD Project-PSpiceFiles\


 ****     INITIAL TRANSIENT SOLUTION       TEMPERATURE =   27.000 DEG C

                      MONTE CARLO PASS 9

******************************************************************************



 NODE   VOLTAGE     NODE   VOLTAGE     NODE   VOLTAGE     NODE   VOLTAGE


(  OUT)     .1837  (  VCC)   14.0000  (N35941)    7.0000 (N35971)     .1843     

(N36087)     .1846 (N36097)     .1844 (N36167)     .1837 (N36179)     .1837     

(N36339)    9.9009 (N36483)    3.4664 (N36491)    2.1013 (N36511)    7.4591     

(N36555)    0.0000 (N36641)    2.7904 (N36689)    3.4663 (N36823)    1.5178     

(N36983)   14.0000 (N37039)   14.0000 (N37147)     .1837 (X_U1.6)    1.4330     

(X_U1.7)   -1.8465 (X_U1.8)   -1.8465 (X_U1.9)    0.0000 (X_U2.6)    1.4552     

(X_U2.7)   -1.8456 (X_U2.8)   -1.8456 (X_U2.9)    0.0000 (X_U3.6) 313.8E-06     

(X_U3.7)    3.5335 (X_U3.8)    3.5335 (X_U3.9)    0.0000 (X_U4.6)    1.4985     

(X_U4.7)   -1.8465 (X_U4.8)   -1.8465 (X_U4.9)    0.0000 (N361310)     .1837    

(X_U1.10)    -.4538                   (X_U1.11)   13.9240                       

(X_U1.12)   14.0000                   (X_U1.13)    -.4270                       

(X_U1.14)    -.4537                   (X_U1.53)   13.0000                       

(X_U1.54)    1.0000                   (X_U1.90)  -40.6040                       

(X_U1.91)   40.0000                   (X_U1.92)  -40.0000                       

(X_U1.99)    7.0000                   (X_U2.10)    1.4632                       

(X_U2.11)   13.9230                   (X_U2.12)   14.0000                       

(X_U2.13)    1.4902                   (X_U2.14)    1.4632                       

(X_U2.53)   13.0000                   (X_U2.54)    1.0000                       

(X_U2.90)  -40.6050                   (X_U2.91)   40.0000                       

(X_U2.92)  -40.0000                   (X_U2.99)    7.0000                       

(X_U3.10)    2.8594                   (X_U3.11)   13.9610                       

(X_U3.12)   13.9610                   (X_U3.13)    2.8730                       

(X_U3.14)    2.8730                   (X_U3.53)   13.0000                       

(X_U3.54)    1.0000                   (X_U3.90)    1.3406                       

(X_U3.91)   40.0000                   (X_U3.92)  -40.0000                       

(X_U3.99)    7.0000                   (X_U4.10)    6.8195                       

(X_U4.11)   13.9210                   (X_U4.12)   14.0000                       

(X_U4.13)    6.8474                   (X_U4.14)    6.8195                       

(X_U4.53)   13.0000                   (X_U4.54)    1.0000                       

(X_U4.90)  -40.6060                   (X_U4.91)   40.0000                       

(X_U4.92)  -40.0000                   (X_U4.99)    7.0000                   




    VOLTAGE SOURCE CURRENTS
    NAME         CURRENT

    V_V1        -5.223E-03
    V_V3        -3.403E-10
    X_U1.vb      1.433E-05
    X_U1.vc      1.282E-11
    X_U1.ve     -4.060E-02
    X_U1.vlim   -4.060E-02
    X_U1.vlp    -8.060E-11
    X_U1.vln     1.113E-05
    X_U3.vb      3.138E-09
    X_U3.vc      9.534E-12
    X_U3.ve      2.330E-12
    X_U3.vlim    1.341E-03
    X_U3.vlp    -3.866E-11
    X_U3.vln    -4.135E-11
    X_U2.vb      1.455E-05
    X_U2.vc      1.282E-11
    X_U2.ve     -3.927E-02
    X_U2.vlim   -4.061E-02
    X_U2.vlp    -8.061E-11
    X_U2.vln     1.150E-05
    X_U4.vb      1.499E-05
    X_U4.vc      1.282E-11
    X_U4.ve     -4.061E-02
    X_U4.vlim   -4.061E-02
    X_U4.vlp    -8.061E-11
    X_U4.vln     1.183E-05

    TOTAL POWER DISSIPATION   1.92E-01  WATTS


**** 05/26/24 11:46:08 ***** PSpice 23.1.0 (6 March 2024) ***** ID# 0 ********

 ** Profile: "SCHEMATIC1-Performace Analysis"  [ C:\Users\Lenovo\Desktop\final grade cad project\Final Grade CAD Project-PSpiceFiles\


 ****     INITIAL TRANSIENT SOLUTION       TEMPERATURE =   27.000 DEG C

                      MONTE CARLO PASS 10

******************************************************************************



 NODE   VOLTAGE     NODE   VOLTAGE     NODE   VOLTAGE     NODE   VOLTAGE


(  OUT)     .1837  (  VCC)   14.0000  (N35941)    7.0000 (N35971)     .1843     

(N36087)     .1846 (N36097)     .1845 (N36167)     .1837 (N36179)     .1837     

(N36339)    9.9429 (N36483)    3.4923 (N36491)    2.1381 (N36511)    7.5558     

(N36555)    0.0000 (N36641)    2.8236 (N36689)    3.4922 (N36823)    1.5348     

(N36983)   14.0000 (N37039)   14.0000 (N37147)     .1837 (X_U1.6)    1.4330     

(X_U1.7)   -1.8465 (X_U1.8)   -1.8465 (X_U1.9)    0.0000 (X_U2.6)    1.4555     

(X_U2.7)   -1.8456 (X_U2.8)   -1.8456 (X_U2.9)    0.0000 (X_U3.6) 311.0E-06     

(X_U3.7)    3.5606 (X_U3.8)    3.5606 (X_U3.9)    0.0000 (X_U4.6)    1.4993     

(X_U4.7)   -1.8465 (X_U4.8)   -1.8465 (X_U4.9)    0.0000 (N361310)     .1837    

(X_U1.10)    -.4538                   (X_U1.11)   13.9240                       

(X_U1.12)   14.0000                   (X_U1.13)    -.4270                       

(X_U1.14)    -.4537                   (X_U1.53)   13.0000                       

(X_U1.54)    1.0000                   (X_U1.90)  -40.6040                       

(X_U1.91)   40.0000                   (X_U1.92)  -40.0000                       

(X_U1.99)    7.0000                   (X_U2.10)    1.5000                       

(X_U2.11)   13.9230                   (X_U2.12)   14.0000                       

(X_U2.13)    1.5271                   (X_U2.14)    1.5000                       

(X_U2.53)   13.0000                   (X_U2.54)    1.0000                       

(X_U2.90)  -40.6050                   (X_U2.91)   40.0000                       

(X_U2.92)  -40.0000                   (X_U2.99)    7.0000                       

(X_U3.10)    2.8853                   (X_U3.11)   13.9610                       

(X_U3.12)   13.9610                   (X_U3.13)    2.8989                       

(X_U3.14)    2.8989                   (X_U3.53)   13.0000                       

(X_U3.54)    1.0000                   (X_U3.90)    1.3663                       

(X_U3.91)   40.0000                   (X_U3.92)  -40.0000                       

(X_U3.99)    7.0000                   (X_U4.10)    6.9162                       

(X_U4.11)   13.9200                   (X_U4.12)   14.0000                       

(X_U4.13)    6.9440                   (X_U4.14)    6.9162                       

(X_U4.53)   13.0000                   (X_U4.54)    1.0000                       

(X_U4.90)  -40.6060                   (X_U4.91)   40.0000                       

(X_U4.92)  -40.0000                   (X_U4.99)    7.0000                   




    VOLTAGE SOURCE CURRENTS
    NAME         CURRENT

    V_V1        -5.244E-03
    V_V3        -3.403E-10
    X_U1.vb      1.433E-05
    X_U1.vc      1.282E-11
    X_U1.ve     -4.060E-02
    X_U1.vlim   -4.060E-02
    X_U1.vlp    -8.060E-11
    X_U1.vln     1.113E-05
    X_U3.vb      3.110E-09
    X_U3.vc      9.508E-12
    X_U3.ve      2.356E-12
    X_U3.vlim    1.366E-03
    X_U3.vlp    -3.863E-11
    X_U3.vln    -4.137E-11
    X_U2.vb      1.455E-05
    X_U2.vc      1.282E-11
    X_U2.ve     -3.924E-02
    X_U2.vlim   -4.061E-02
    X_U2.vlp    -8.061E-11
    X_U2.vln     1.151E-05
    X_U4.vb      1.499E-05
    X_U4.vc      1.282E-11
    X_U4.ve     -4.061E-02
    X_U4.vlim   -4.061E-02
    X_U4.vlp    -8.061E-11
    X_U4.vln     1.183E-05

    TOTAL POWER DISSIPATION   1.92E-01  WATTS


**** 05/26/24 11:46:08 ***** PSpice 23.1.0 (6 March 2024) ***** ID# 0 ********

 ** Profile: "SCHEMATIC1-Performace Analysis"  [ C:\Users\Lenovo\Desktop\final grade cad project\Final Grade CAD Project-PSpiceFiles\


 ****     INITIAL TRANSIENT SOLUTION       TEMPERATURE =   27.000 DEG C

                      MONTE CARLO PASS 11

******************************************************************************



 NODE   VOLTAGE     NODE   VOLTAGE     NODE   VOLTAGE     NODE   VOLTAGE


(  OUT)     .1837  (  VCC)   14.0000  (N35941)    7.0000 (N35971)     .1843     

(N36087)     .1846 (N36097)     .1845 (N36167)     .1837 (N36179)     .1837     

(N36339)    9.8840 (N36483)    3.5589 (N36491)    2.1680 (N36511)    7.4859     

(N36555)    0.0000 (N36641)    2.7976 (N36689)    3.5587 (N36823)    1.5765     

(N36983)   14.0000 (N37039)   14.0000 (N37147)     .1837 (X_U1.6)    1.4330     

(X_U1.7)   -1.8465 (X_U1.8)   -1.8465 (X_U1.9)    0.0000 (X_U2.6)    1.4557     

(X_U2.7)   -1.8456 (X_U2.8)   -1.8456 (X_U2.9)    0.0000 (X_U3.6) 304.5E-06     

(X_U3.7)    3.6283 (X_U3.8)    3.6283 (X_U3.9)    0.0000 (X_U4.6)    1.4987     

(X_U4.7)   -1.8465 (X_U4.8)   -1.8465 (X_U4.9)    0.0000 (N361310)     .1837    

(X_U1.10)    -.4538                   (X_U1.11)   13.9240                       

(X_U1.12)   14.0000                   (X_U1.13)    -.4270                       

(X_U1.14)    -.4537                   (X_U1.53)   13.0000                       

(X_U1.54)    1.0000                   (X_U1.90)  -40.6040                       

(X_U1.91)   40.0000                   (X_U1.92)  -40.0000                       

(X_U1.99)    7.0000                   (X_U2.10)    1.5299                       

(X_U2.11)   13.9230                   (X_U2.12)   14.0000                       

(X_U2.13)    1.5570                   (X_U2.14)    1.5299                       

(X_U2.53)   13.0000                   (X_U2.54)    1.0000                       

(X_U2.90)  -40.6050                   (X_U2.91)   40.0000                       

(X_U2.92)  -40.0000                   (X_U2.99)    7.0000                       

(X_U3.10)    2.9518                   (X_U3.11)   13.9610                       

(X_U3.12)   13.9610                   (X_U3.13)    2.9655                       

(X_U3.14)    2.9654                   (X_U3.53)   13.0000                       

(X_U3.54)    1.0000                   (X_U3.90)    1.3872                       

(X_U3.91)   40.0000                   (X_U3.92)  -40.0000                       

(X_U3.99)    7.0000                   (X_U4.10)    6.8463                       

(X_U4.11)   13.9200                   (X_U4.12)   14.0000                       

(X_U4.13)    6.8741                   (X_U4.14)    6.8463                       

(X_U4.53)   13.0000                   (X_U4.54)    1.0000                       

(X_U4.90)  -40.6060                   (X_U4.91)   40.0000                       

(X_U4.92)  -40.0000                   (X_U4.99)    7.0000                   




    VOLTAGE SOURCE CURRENTS
    NAME         CURRENT

    V_V1        -5.244E-03
    V_V3        -3.403E-10
    X_U1.vb      1.433E-05
    X_U1.vc      1.282E-11
    X_U1.ve     -4.060E-02
    X_U1.vlim   -4.060E-02
    X_U1.vlp    -8.060E-11
    X_U1.vln     1.113E-05
    X_U3.vb      3.045E-09
    X_U3.vc      9.442E-12
    X_U3.ve      2.423E-12
    X_U3.vlim    1.387E-03
    X_U3.vlp    -3.861E-11
    X_U3.vln    -4.139E-11
    X_U2.vb      1.456E-05
    X_U2.vc      1.282E-11
    X_U2.ve     -3.922E-02
    X_U2.vlim   -4.061E-02
    X_U2.vlp    -8.061E-11
    X_U2.vln     1.151E-05
    X_U4.vb      1.499E-05
    X_U4.vc      1.282E-11
    X_U4.ve     -4.061E-02
    X_U4.vlim   -4.061E-02
    X_U4.vlp    -8.061E-11
    X_U4.vln     1.183E-05

    TOTAL POWER DISSIPATION   1.92E-01  WATTS


**** 05/26/24 11:46:08 ***** PSpice 23.1.0 (6 March 2024) ***** ID# 0 ********

 ** Profile: "SCHEMATIC1-Performace Analysis"  [ C:\Users\Lenovo\Desktop\final grade cad project\Final Grade CAD Project-PSpiceFiles\


 ****     INITIAL TRANSIENT SOLUTION       TEMPERATURE =   27.000 DEG C

                      MONTE CARLO PASS 12

******************************************************************************



 NODE   VOLTAGE     NODE   VOLTAGE     NODE   VOLTAGE     NODE   VOLTAGE


(  OUT)     .1837  (  VCC)   14.0000  (N35941)    7.0000 (N35971)     .1843     

(N36087)     .1846 (N36097)     .1844 (N36167)     .1837 (N36179)     .1837     

(N36339)    9.9666 (N36483)    3.4652 (N36491)    2.1237 (N36511)    7.5272     

(N36555)    0.0000 (N36641)    2.8202 (N36689)    3.4651 (N36823)    1.5395     

(N36983)   14.0000 (N37039)   14.0000 (N37147)     .1837 (X_U1.6)    1.4330     

(X_U1.7)   -1.8465 (X_U1.8)   -1.8465 (X_U1.9)    0.0000 (X_U2.6)    1.4553     

(X_U2.7)   -1.8456 (X_U2.8)   -1.8456 (X_U2.9)    0.0000 (X_U3.6) 313.7E-06     

(X_U3.7)    3.5331 (X_U3.8)    3.5331 (X_U3.9)    0.0000 (X_U4.6)    1.4991     

(X_U4.7)   -1.8465 (X_U4.8)   -1.8465 (X_U4.9)    0.0000 (N361310)     .1837    

(X_U1.10)    -.4538                   (X_U1.11)   13.9240                       

(X_U1.12)   14.0000                   (X_U1.13)    -.4270                       

(X_U1.14)    -.4537                   (X_U1.53)   13.0000                       

(X_U1.54)    1.0000                   (X_U1.90)  -40.6040                       

(X_U1.91)   40.0000                   (X_U1.92)  -40.0000                       

(X_U1.99)    7.0000                   (X_U2.10)    1.4856                       

(X_U2.11)   13.9230                   (X_U2.12)   14.0000                       

(X_U2.13)    1.5127                   (X_U2.14)    1.4856                       

(X_U2.53)   13.0000                   (X_U2.54)    1.0000                       

(X_U2.90)  -40.6050                   (X_U2.91)   40.0000                       

(X_U2.92)  -40.0000                   (X_U2.99)    7.0000                       

(X_U3.10)    2.8582                   (X_U3.11)   13.9610                       

(X_U3.12)   13.9610                   (X_U3.13)    2.8719                       

(X_U3.14)    2.8718                   (X_U3.53)   13.0000                       

(X_U3.54)    1.0000                   (X_U3.90)    1.3563                       

(X_U3.91)   40.0000                   (X_U3.92)  -40.0000                       

(X_U3.99)    7.0000                   (X_U4.10)    6.8876                       

(X_U4.11)   13.9200                   (X_U4.12)   14.0000                       

(X_U4.13)    6.9154                   (X_U4.14)    6.8876                       

(X_U4.53)   13.0000                   (X_U4.54)    1.0000                       

(X_U4.90)  -40.6060                   (X_U4.91)   40.0000                       

(X_U4.92)  -40.0000                   (X_U4.99)    7.0000                   




    VOLTAGE SOURCE CURRENTS
    NAME         CURRENT

    V_V1        -5.228E-03
    V_V3        -3.403E-10
    X_U1.vb      1.433E-05
    X_U1.vc      1.282E-11
    X_U1.ve     -4.060E-02
    X_U1.vlim   -4.060E-02
    X_U1.vlp    -8.060E-11
    X_U1.vln     1.113E-05
    X_U3.vb      3.137E-09
    X_U3.vc      9.536E-12
    X_U3.ve      2.329E-12
    X_U3.vlim    1.356E-03
    X_U3.vlp    -3.864E-11
    X_U3.vln    -4.136E-11
    X_U2.vb      1.455E-05
    X_U2.vc      1.282E-11
    X_U2.ve     -3.925E-02
    X_U2.vlim   -4.061E-02
    X_U2.vlp    -8.061E-11
    X_U2.vln     1.150E-05
    X_U4.vb      1.499E-05
    X_U4.vc      1.282E-11
    X_U4.ve     -4.061E-02
    X_U4.vlim   -4.061E-02
    X_U4.vlp    -8.061E-11
    X_U4.vln     1.183E-05

    TOTAL POWER DISSIPATION   1.92E-01  WATTS


**** 05/26/24 11:46:08 ***** PSpice 23.1.0 (6 March 2024) ***** ID# 0 ********

 ** Profile: "SCHEMATIC1-Performace Analysis"  [ C:\Users\Lenovo\Desktop\final grade cad project\Final Grade CAD Project-PSpiceFiles\


 ****     INITIAL TRANSIENT SOLUTION       TEMPERATURE =   27.000 DEG C

                      MONTE CARLO PASS 13

******************************************************************************



 NODE   VOLTAGE     NODE   VOLTAGE     NODE   VOLTAGE     NODE   VOLTAGE


(  OUT)     .1837  (  VCC)   14.0000  (N35941)    7.0000 (N35971)     .1843     

(N36087)     .1846 (N36097)     .1845 (N36167)     .1837 (N36179)     .1837     

(N36339)    9.8989 (N36483)    3.5128 (N36491)    2.1386 (N36511)    7.4864     

(N36555)    0.0000 (N36641)    2.7845 (N36689)    3.5126 (N36823)    1.5269     

(N36983)   14.0000 (N37039)   14.0000 (N37147)     .1837 (X_U1.6)    1.4330     

(X_U1.7)   -1.8465 (X_U1.8)   -1.8465 (X_U1.9)    0.0000 (X_U2.6)    1.4555     

(X_U2.7)   -1.8456 (X_U2.8)   -1.8456 (X_U2.9)    0.0000 (X_U3.6) 309.1E-06     

(X_U3.7)    3.5811 (X_U3.8)    3.5811 (X_U3.9)    0.0000 (X_U4.6)    1.4987     

(X_U4.7)   -1.8465 (X_U4.8)   -1.8465 (X_U4.9)    0.0000 (N361310)     .1837    

(X_U1.10)    -.4538                   (X_U1.11)   13.9240                       

(X_U1.12)   14.0000                   (X_U1.13)    -.4270                       

(X_U1.14)    -.4537                   (X_U1.53)   13.0000                       

(X_U1.54)    1.0000                   (X_U1.90)  -40.6040                       

(X_U1.91)   40.0000                   (X_U1.92)  -40.0000                       

(X_U1.99)    7.0000                   (X_U2.10)    1.5004                       

(X_U2.11)   13.9230                   (X_U2.12)   14.0000                       

(X_U2.13)    1.5275                   (X_U2.14)    1.5004                       

(X_U2.53)   13.0000                   (X_U2.54)    1.0000                       

(X_U2.90)  -40.6050                   (X_U2.91)   40.0000                       

(X_U2.92)  -40.0000                   (X_U2.99)    7.0000                       

(X_U3.10)    2.9057                   (X_U3.11)   13.9610                       

(X_U3.12)   13.9610                   (X_U3.13)    2.9194                       

(X_U3.14)    2.9193                   (X_U3.53)   13.0000                       

(X_U3.54)    1.0000                   (X_U3.90)    1.3666                       

(X_U3.91)   40.0000                   (X_U3.92)  -40.0000                       

(X_U3.99)    7.0000                   (X_U4.10)    6.8468                       

(X_U4.11)   13.9200                   (X_U4.12)   14.0000                       

(X_U4.13)    6.8746                   (X_U4.14)    6.8468                       

(X_U4.53)   13.0000                   (X_U4.54)    1.0000                       

(X_U4.90)  -40.6060                   (X_U4.91)   40.0000                       

(X_U4.92)  -40.0000                   (X_U4.99)    7.0000                   




    VOLTAGE SOURCE CURRENTS
    NAME         CURRENT

    V_V1        -5.237E-03
    V_V3        -3.403E-10
    X_U1.vb      1.433E-05
    X_U1.vc      1.282E-11
    X_U1.ve     -4.060E-02
    X_U1.vlim   -4.060E-02
    X_U1.vlp    -8.060E-11
    X_U1.vln     1.113E-05
    X_U3.vb      3.091E-09
    X_U3.vc      9.488E-12
    X_U3.ve      2.377E-12
    X_U3.vlim    1.367E-03
    X_U3.vlp    -3.863E-11
    X_U3.vln    -4.137E-11
    X_U2.vb      1.455E-05
    X_U2.vc      1.282E-11
    X_U2.ve     -3.924E-02
    X_U2.vlim   -4.061E-02
    X_U2.vlp    -8.061E-11
    X_U2.vln     1.151E-05
    X_U4.vb      1.499E-05
    X_U4.vc      1.282E-11
    X_U4.ve     -4.061E-02
    X_U4.vlim   -4.061E-02
    X_U4.vlp    -8.061E-11
    X_U4.vln     1.183E-05

    TOTAL POWER DISSIPATION   1.92E-01  WATTS


**** 05/26/24 11:46:08 ***** PSpice 23.1.0 (6 March 2024) ***** ID# 0 ********

 ** Profile: "SCHEMATIC1-Performace Analysis"  [ C:\Users\Lenovo\Desktop\final grade cad project\Final Grade CAD Project-PSpiceFiles\


 ****     INITIAL TRANSIENT SOLUTION       TEMPERATURE =   27.000 DEG C

                      MONTE CARLO PASS 14

******************************************************************************



 NODE   VOLTAGE     NODE   VOLTAGE     NODE   VOLTAGE     NODE   VOLTAGE


(  OUT)     .1837  (  VCC)   14.0000  (N35941)    7.0000 (N35971)     .1843     

(N36087)     .1846 (N36097)     .1844 (N36167)     .1837 (N36179)     .1837     

(N36339)    9.8778 (N36483)    3.4517 (N36491)    2.1066 (N36511)    7.4618     

(N36555)    0.0000 (N36641)    2.8130 (N36689)    3.4516 (N36823)    1.5185     

(N36983)   14.0000 (N37039)   14.0000 (N37147)     .1837 (X_U1.6)    1.4330     

(X_U1.7)   -1.8465 (X_U1.8)   -1.8465 (X_U1.9)    0.0000 (X_U2.6)    1.4552     

(X_U2.7)   -1.8456 (X_U2.8)   -1.8456 (X_U2.9)    0.0000 (X_U3.6) 315.2E-06     

(X_U3.7)    3.5190 (X_U3.8)    3.5190 (X_U3.9)    0.0000 (X_U4.6)    1.4985     

(X_U4.7)   -1.8465 (X_U4.8)   -1.8465 (X_U4.9)    0.0000 (N361310)     .1837    

(X_U1.10)    -.4538                   (X_U1.11)   13.9240                       

(X_U1.12)   14.0000                   (X_U1.13)    -.4270                       

(X_U1.14)    -.4537                   (X_U1.53)   13.0000                       

(X_U1.54)    1.0000                   (X_U1.90)  -40.6040                       

(X_U1.91)   40.0000                   (X_U1.92)  -40.0000                       

(X_U1.99)    7.0000                   (X_U2.10)    1.4685                       

(X_U2.11)   13.9230                   (X_U2.12)   14.0000                       

(X_U2.13)    1.4955                   (X_U2.14)    1.4685                       

(X_U2.53)   13.0000                   (X_U2.54)    1.0000                       

(X_U2.90)  -40.6050                   (X_U2.91)   40.0000                       

(X_U2.92)  -40.0000                   (X_U2.99)    7.0000                       

(X_U3.10)    2.8447                   (X_U3.11)   13.9610                       

(X_U3.12)   13.9610                   (X_U3.13)    2.8584                       

(X_U3.14)    2.8583                   (X_U3.53)   13.0000                       

(X_U3.54)    1.0000                   (X_U3.90)    1.3443                       

(X_U3.91)   40.0000                   (X_U3.92)  -40.0000                       

(X_U3.99)    7.0000                   (X_U4.10)    6.8222                       

(X_U4.11)   13.9210                   (X_U4.12)   14.0000                       

(X_U4.13)    6.8500                   (X_U4.14)    6.8222                       

(X_U4.53)   13.0000                   (X_U4.54)    1.0000                       

(X_U4.90)  -40.6060                   (X_U4.91)   40.0000                       

(X_U4.92)  -40.0000                   (X_U4.99)    7.0000                   




    VOLTAGE SOURCE CURRENTS
    NAME         CURRENT

    V_V1        -5.238E-03
    V_V3        -3.403E-10
    X_U1.vb      1.433E-05
    X_U1.vc      1.282E-11
    X_U1.ve     -4.060E-02
    X_U1.vlim   -4.060E-02
    X_U1.vlp    -8.060E-11
    X_U1.vln     1.113E-05
    X_U3.vb      3.152E-09
    X_U3.vc      9.549E-12
    X_U3.ve      2.316E-12
    X_U3.vlim    1.344E-03
    X_U3.vlp    -3.866E-11
    X_U3.vln    -4.135E-11
    X_U2.vb      1.455E-05
    X_U2.vc      1.282E-11
    X_U2.ve     -3.926E-02
    X_U2.vlim   -4.061E-02
    X_U2.vlp    -8.061E-11
    X_U2.vln     1.150E-05
    X_U4.vb      1.499E-05
    X_U4.vc      1.282E-11
    X_U4.ve     -4.061E-02
    X_U4.vlim   -4.061E-02
    X_U4.vlp    -8.061E-11
    X_U4.vln     1.183E-05

    TOTAL POWER DISSIPATION   1.92E-01  WATTS


**** 05/26/24 11:46:08 ***** PSpice 23.1.0 (6 March 2024) ***** ID# 0 ********

 ** Profile: "SCHEMATIC1-Performace Analysis"  [ C:\Users\Lenovo\Desktop\final grade cad project\Final Grade CAD Project-PSpiceFiles\


 ****     INITIAL TRANSIENT SOLUTION       TEMPERATURE =   27.000 DEG C

                      MONTE CARLO PASS 15

******************************************************************************



 NODE   VOLTAGE     NODE   VOLTAGE     NODE   VOLTAGE     NODE   VOLTAGE


(  OUT)     .1837  (  VCC)   14.0000  (N35941)    7.0000 (N35971)     .1843     

(N36087)     .1846 (N36097)     .1844 (N36167)     .1837 (N36179)     .1837     

(N36339)    9.9437 (N36483)    3.4657 (N36491)    2.1109 (N36511)    7.5386     

(N36555)    0.0000 (N36641)    2.7775 (N36689)    3.4656 (N36823)    1.5054     

(N36983)   14.0000 (N37039)   14.0000 (N37147)     .1837 (X_U1.6)    1.4330     

(X_U1.7)   -1.8465 (X_U1.8)   -1.8465 (X_U1.9)    0.0000 (X_U2.6)    1.4552     

(X_U2.7)   -1.8456 (X_U2.8)   -1.8456 (X_U2.9)    0.0000 (X_U3.6) 313.8E-06     

(X_U3.7)    3.5331 (X_U3.8)    3.5331 (X_U3.9)    0.0000 (X_U4.6)    1.4992     

(X_U4.7)   -1.8465 (X_U4.8)   -1.8465 (X_U4.9)    0.0000 (N361310)     .1837    

(X_U1.10)    -.4538                   (X_U1.11)   13.9240                       

(X_U1.12)   14.0000                   (X_U1.13)    -.4270                       

(X_U1.14)    -.4537                   (X_U1.53)   13.0000                       

(X_U1.54)    1.0000                   (X_U1.90)  -40.6040                       

(X_U1.91)   40.0000                   (X_U1.92)  -40.0000                       

(X_U1.99)    7.0000                   (X_U2.10)    1.4728                       

(X_U2.11)   13.9230                   (X_U2.12)   14.0000                       

(X_U2.13)    1.4999                   (X_U2.14)    1.4728                       

(X_U2.53)   13.0000                   (X_U2.54)    1.0000                       

(X_U2.90)  -40.6050                   (X_U2.91)   40.0000                       

(X_U2.92)  -40.0000                   (X_U2.99)    7.0000                       

(X_U3.10)    2.8587                   (X_U3.11)   13.9610                       

(X_U3.12)   13.9610                   (X_U3.13)    2.8723                       

(X_U3.14)    2.8723                   (X_U3.53)   13.0000                       

(X_U3.54)    1.0000                   (X_U3.90)    1.3473                       

(X_U3.91)   40.0000                   (X_U3.92)  -40.0000                       

(X_U3.99)    7.0000                   (X_U4.10)    6.8990                       

(X_U4.11)   13.9200                   (X_U4.12)   14.0000                       

(X_U4.13)    6.9268                   (X_U4.14)    6.8990                       

(X_U4.53)   13.0000                   (X_U4.54)    1.0000                       

(X_U4.90)  -40.6060                   (X_U4.91)   40.0000                       

(X_U4.92)  -40.0000                   (X_U4.99)    7.0000                   




    VOLTAGE SOURCE CURRENTS
    NAME         CURRENT

    V_V1        -5.218E-03
    V_V3        -3.403E-10
    X_U1.vb      1.433E-05
    X_U1.vc      1.282E-11
    X_U1.ve     -4.060E-02
    X_U1.vlim   -4.060E-02
    X_U1.vlp    -8.060E-11
    X_U1.vln     1.113E-05
    X_U3.vb      3.138E-09
    X_U3.vc      9.535E-12
    X_U3.ve      2.330E-12
    X_U3.vlim    1.347E-03
    X_U3.vlp    -3.865E-11
    X_U3.vln    -4.135E-11
    X_U2.vb      1.455E-05
    X_U2.vc      1.282E-11
    X_U2.ve     -3.926E-02
    X_U2.vlim   -4.061E-02
    X_U2.vlp    -8.061E-11
    X_U2.vln     1.150E-05
    X_U4.vb      1.499E-05
    X_U4.vc      1.282E-11
    X_U4.ve     -4.061E-02
    X_U4.vlim   -4.061E-02
    X_U4.vlp    -8.061E-11
    X_U4.vln     1.183E-05

    TOTAL POWER DISSIPATION   1.92E-01  WATTS


**** 05/26/24 11:46:08 ***** PSpice 23.1.0 (6 March 2024) ***** ID# 0 ********

 ** Profile: "SCHEMATIC1-Performace Analysis"  [ C:\Users\Lenovo\Desktop\final grade cad project\Final Grade CAD Project-PSpiceFiles\


 ****     INITIAL TRANSIENT SOLUTION       TEMPERATURE =   27.000 DEG C

                      MONTE CARLO PASS 16

******************************************************************************



 NODE   VOLTAGE     NODE   VOLTAGE     NODE   VOLTAGE     NODE   VOLTAGE


(  OUT)     .1837  (  VCC)   14.0000  (N35941)    7.0000 (N35971)     .1843     

(N36087)     .1846 (N36097)     .1845 (N36167)     .1837 (N36179)     .1837     

(N36339)    9.8767 (N36483)    3.5186 (N36491)    2.1615 (N36511)    7.4825     

(N36555)    0.0000 (N36641)    2.7810 (N36689)    3.5184 (N36823)    1.5536     

(N36983)   14.0000 (N37039)   14.0000 (N37147)     .1837 (X_U1.6)    1.4330     

(X_U1.7)   -1.8465 (X_U1.8)   -1.8465 (X_U1.9)    0.0000 (X_U2.6)    1.4556     

(X_U2.7)   -1.8456 (X_U2.8)   -1.8456 (X_U2.9)    0.0000 (X_U3.6) 308.3E-06     

(X_U3.7)    3.5877 (X_U3.8)    3.5877 (X_U3.9)    0.0000 (X_U4.6)    1.4987     

(X_U4.7)   -1.8465 (X_U4.8)   -1.8465 (X_U4.9)    0.0000 (N361310)     .1837    

(X_U1.10)    -.4538                   (X_U1.11)   13.9240                       

(X_U1.12)   14.0000                   (X_U1.13)    -.4270                       

(X_U1.14)    -.4537                   (X_U1.53)   13.0000                       

(X_U1.54)    1.0000                   (X_U1.90)  -40.6040                       

(X_U1.91)   40.0000                   (X_U1.92)  -40.0000                       

(X_U1.99)    7.0000                   (X_U2.10)    1.5234                       

(X_U2.11)   13.9230                   (X_U2.12)   14.0000                       

(X_U2.13)    1.5504                   (X_U2.14)    1.5234                       

(X_U2.53)   13.0000                   (X_U2.54)    1.0000                       

(X_U2.90)  -40.6050                   (X_U2.91)   40.0000                       

(X_U2.92)  -40.0000                   (X_U2.99)    7.0000                       

(X_U3.10)    2.9115                   (X_U3.11)   13.9610                       

(X_U3.12)   13.9610                   (X_U3.13)    2.9252                       

(X_U3.14)    2.9251                   (X_U3.53)   13.0000                       

(X_U3.54)    1.0000                   (X_U3.90)    1.3827                       

(X_U3.91)   40.0000                   (X_U3.92)  -40.0000                       

(X_U3.99)    7.0000                   (X_U4.10)    6.8430                       

(X_U4.11)   13.9200                   (X_U4.12)   14.0000                       

(X_U4.13)    6.8708                   (X_U4.14)    6.8430                       

(X_U4.53)   13.0000                   (X_U4.54)    1.0000                       

(X_U4.90)  -40.6060                   (X_U4.91)   40.0000                       

(X_U4.92)  -40.0000                   (X_U4.99)    7.0000                   




    VOLTAGE SOURCE CURRENTS
    NAME         CURRENT

    V_V1        -5.236E-03
    V_V3        -3.403E-10
    X_U1.vb      1.433E-05
    X_U1.vc      1.282E-11
    X_U1.ve     -4.060E-02
    X_U1.vlim   -4.060E-02
    X_U1.vlp    -8.060E-11
    X_U1.vln     1.113E-05
    X_U3.vb      3.083E-09
    X_U3.vc      9.482E-12
    X_U3.ve      2.383E-12
    X_U3.vlim    1.383E-03
    X_U3.vlp    -3.862E-11
    X_U3.vln    -4.139E-11
    X_U2.vb      1.456E-05
    X_U2.vc      1.282E-11
    X_U2.ve     -3.922E-02
    X_U2.vlim   -4.061E-02
    X_U2.vlp    -8.061E-11
    X_U2.vln     1.151E-05
    X_U4.vb      1.499E-05
    X_U4.vc      1.282E-11
    X_U4.ve     -4.061E-02
    X_U4.vlim   -4.061E-02
    X_U4.vlp    -8.061E-11
    X_U4.vln     1.183E-05

    TOTAL POWER DISSIPATION   1.92E-01  WATTS


**** 05/26/24 11:46:08 ***** PSpice 23.1.0 (6 March 2024) ***** ID# 0 ********

 ** Profile: "SCHEMATIC1-Performace Analysis"  [ C:\Users\Lenovo\Desktop\final grade cad project\Final Grade CAD Project-PSpiceFiles\


 ****     INITIAL TRANSIENT SOLUTION       TEMPERATURE =   27.000 DEG C

                      MONTE CARLO PASS 17

******************************************************************************



 NODE   VOLTAGE     NODE   VOLTAGE     NODE   VOLTAGE     NODE   VOLTAGE


(  OUT)     .1837  (  VCC)   14.0000  (N35941)    7.0000 (N35971)     .1843     

(N36087)     .1846 (N36097)     .1845 (N36167)     .1837 (N36179)     .1837     

(N36339)    9.8378 (N36483)    3.4963 (N36491)    2.1324 (N36511)    7.4131     

(N36555)    0.0000 (N36641)    2.7472 (N36689)    3.4961 (N36823)    1.5106     

(N36983)   14.0000 (N37039)   14.0000 (N37147)     .1837 (X_U1.6)    1.4330     

(X_U1.7)   -1.8465 (X_U1.8)   -1.8465 (X_U1.9)    0.0000 (X_U2.6)    1.4554     

(X_U2.7)   -1.8456 (X_U2.8)   -1.8456 (X_U2.9)    0.0000 (X_U3.6) 310.7E-06     

(X_U3.7)    3.5644 (X_U3.8)    3.5644 (X_U3.9)    0.0000 (X_U4.6)    1.4982     

(X_U4.7)   -1.8465 (X_U4.8)   -1.8465 (X_U4.9)    0.0000 (N361310)     .1837    

(X_U1.10)    -.4538                   (X_U1.11)   13.9240                       

(X_U1.12)   14.0000                   (X_U1.13)    -.4270                       

(X_U1.14)    -.4537                   (X_U1.53)   13.0000                       

(X_U1.54)    1.0000                   (X_U1.90)  -40.6040                       

(X_U1.91)   40.0000                   (X_U1.92)  -40.0000                       

(X_U1.99)    7.0000                   (X_U2.10)    1.4942                       

(X_U2.11)   13.9230                   (X_U2.12)   14.0000                       

(X_U2.13)    1.5213                   (X_U2.14)    1.4942                       

(X_U2.53)   13.0000                   (X_U2.54)    1.0000                       

(X_U2.90)  -40.6050                   (X_U2.91)   40.0000                       

(X_U2.92)  -40.0000                   (X_U2.99)    7.0000                       

(X_U3.10)    2.8892                   (X_U3.11)   13.9610                       

(X_U3.12)   13.9610                   (X_U3.13)    2.9029                       

(X_U3.14)    2.9028                   (X_U3.53)   13.0000                       

(X_U3.54)    1.0000                   (X_U3.90)    1.3623                       

(X_U3.91)   40.0000                   (X_U3.92)  -40.0000                       

(X_U3.99)    7.0000                   (X_U4.10)    6.7735                       

(X_U4.11)   13.9210                   (X_U4.12)   14.0000                       

(X_U4.13)    6.8013                   (X_U4.14)    6.7735                       

(X_U4.53)   13.0000                   (X_U4.54)    1.0000                       

(X_U4.90)  -40.6060                   (X_U4.91)   40.0000                       

(X_U4.92)  -40.0000                   (X_U4.99)    7.0000                   




    VOLTAGE SOURCE CURRENTS
    NAME         CURRENT

    V_V1        -5.229E-03
    V_V3        -3.403E-10
    X_U1.vb      1.433E-05
    X_U1.vc      1.282E-11
    X_U1.ve     -4.060E-02
    X_U1.vlim   -4.060E-02
    X_U1.vlp    -8.060E-11
    X_U1.vln     1.113E-05
    X_U3.vb      3.107E-09
    X_U3.vc      9.505E-12
    X_U3.ve      2.360E-12
    X_U3.vlim    1.362E-03
    X_U3.vlp    -3.864E-11
    X_U3.vln    -4.137E-11
    X_U2.vb      1.455E-05
    X_U2.vc      1.282E-11
    X_U2.ve     -3.924E-02
    X_U2.vlim   -4.061E-02
    X_U2.vlp    -8.061E-11
    X_U2.vln     1.150E-05
    X_U4.vb      1.498E-05
    X_U4.vc      1.282E-11
    X_U4.ve     -4.061E-02
    X_U4.vlim   -4.061E-02
    X_U4.vlp    -8.061E-11
    X_U4.vln     1.182E-05

    TOTAL POWER DISSIPATION   1.92E-01  WATTS


**** 05/26/24 11:46:08 ***** PSpice 23.1.0 (6 March 2024) ***** ID# 0 ********

 ** Profile: "SCHEMATIC1-Performace Analysis"  [ C:\Users\Lenovo\Desktop\final grade cad project\Final Grade CAD Project-PSpiceFiles\


 ****     INITIAL TRANSIENT SOLUTION       TEMPERATURE =   27.000 DEG C

                      MONTE CARLO PASS 18

******************************************************************************



 NODE   VOLTAGE     NODE   VOLTAGE     NODE   VOLTAGE     NODE   VOLTAGE


(  OUT)     .1837  (  VCC)   14.0000  (N35941)    7.0000 (N35971)     .1843     

(N36087)     .1846 (N36097)     .1844 (N36167)     .1837 (N36179)     .1837     

(N36339)    9.8907 (N36483)    3.5117 (N36491)    2.1259 (N36511)    7.5020     

(N36555)    0.0000 (N36641)    2.7747 (N36689)    3.5115 (N36823)    1.5394     

(N36983)   14.0000 (N37039)   14.0000 (N37147)     .1837 (X_U1.6)    1.4330     

(X_U1.7)   -1.8465 (X_U1.8)   -1.8465 (X_U1.9)    0.0000 (X_U2.6)    1.4554     

(X_U2.7)   -1.8456 (X_U2.8)   -1.8456 (X_U2.9)    0.0000 (X_U3.6) 309.3E-06     

(X_U3.7)    3.5796 (X_U3.8)    3.5796 (X_U3.9)    0.0000 (X_U4.6)    1.4989     

(X_U4.7)   -1.8465 (X_U4.8)   -1.8465 (X_U4.9)    0.0000 (N361310)     .1837    

(X_U1.10)    -.4538                   (X_U1.11)   13.9240                       

(X_U1.12)   14.0000                   (X_U1.13)    -.4270                       

(X_U1.14)    -.4537                   (X_U1.53)   13.0000                       

(X_U1.54)    1.0000                   (X_U1.90)  -40.6040                       

(X_U1.91)   40.0000                   (X_U1.92)  -40.0000                       

(X_U1.99)    7.0000                   (X_U2.10)    1.4878                       

(X_U2.11)   13.9230                   (X_U2.12)   14.0000                       

(X_U2.13)    1.5148                   (X_U2.14)    1.4878                       

(X_U2.53)   13.0000                   (X_U2.54)    1.0000                       

(X_U2.90)  -40.6050                   (X_U2.91)   40.0000                       

(X_U2.92)  -40.0000                   (X_U2.99)    7.0000                       

(X_U3.10)    2.9046                   (X_U3.11)   13.9610                       

(X_U3.12)   13.9610                   (X_U3.13)    2.9183                       

(X_U3.14)    2.9182                   (X_U3.53)   13.0000                       

(X_U3.54)    1.0000                   (X_U3.90)    1.3578                       

(X_U3.91)   40.0000                   (X_U3.92)  -40.0000                       

(X_U3.99)    7.0000                   (X_U4.10)    6.8624                       

(X_U4.11)   13.9200                   (X_U4.12)   14.0000                       

(X_U4.13)    6.8902                   (X_U4.14)    6.8624                       

(X_U4.53)   13.0000                   (X_U4.54)    1.0000                       

(X_U4.90)  -40.6060                   (X_U4.91)   40.0000                       

(X_U4.92)  -40.0000                   (X_U4.99)    7.0000                   




    VOLTAGE SOURCE CURRENTS
    NAME         CURRENT

    V_V1        -5.225E-03
    V_V3        -3.403E-10
    X_U1.vb      1.433E-05
    X_U1.vc      1.282E-11
    X_U1.ve     -4.060E-02
    X_U1.vlim   -4.060E-02
    X_U1.vlp    -8.060E-11
    X_U1.vln     1.113E-05
    X_U3.vb      3.093E-09
    X_U3.vc      9.489E-12
    X_U3.ve      2.376E-12
    X_U3.vlim    1.358E-03
    X_U3.vlp    -3.864E-11
    X_U3.vln    -4.136E-11
    X_U2.vb      1.455E-05
    X_U2.vc      1.282E-11
    X_U2.ve     -3.925E-02
    X_U2.vlim   -4.061E-02
    X_U2.vlp    -8.061E-11
    X_U2.vln     1.150E-05
    X_U4.vb      1.499E-05
    X_U4.vc      1.282E-11
    X_U4.ve     -4.061E-02
    X_U4.vlim   -4.061E-02
    X_U4.vlp    -8.061E-11
    X_U4.vln     1.183E-05

    TOTAL POWER DISSIPATION   1.92E-01  WATTS


**** 05/26/24 11:46:08 ***** PSpice 23.1.0 (6 March 2024) ***** ID# 0 ********

[...]

(X_U1.10)    -.4538                   (X_U1.11)   13.9240                       

(X_U1.12)   14.0000                   (X_U1.13)    -.4270                       

(X_U1.14)    -.4537                   (X_U1.53)   13.0000                       

(X_U1.54)    1.0000                   (X_U1.90)  -40.6040                       

(X_U1.91)   40.0000                   (X_U1.92)  -40.0000                       

(X_U1.99)    7.0000                   (X_U2.10)    1.4806                       

(X_U2.11)   13.9230                   (X_U2.12)   14.0000                       

(X_U2.13)    1.5077                   (X_U2.14)    1.4806                       

(X_U2.53)   13.0000                   (X_U2.54)    1.0000                       

(X_U2.90)  -40.6050                   (X_U2.91)   40.0000                       

(X_U2.92)  -40.0000                   (X_U2.99)    7.0000                       

(X_U3.10)    2.8774                   (X_U3.11)   13.9610                       

(X_U3.12)   13.9610                   (X_U3.13)    2.8911                       

(X_U3.14)    2.8910                   (X_U3.53)   13.0000                       

(X_U3.54)    1.0000                   (X_U3.90)    1.3528                       

(X_U3.91)   40.0000                   (X_U3.92)  -40.0000                       

(X_U3.99)    7.0000                   (X_U4.10)    6.8113                       

(X_U4.11)   13.9210                   (X_U4.12)   14.0000                       

(X_U4.13)    6.8391                   (X_U4.14)    6.8113                       

(X_U4.53)   13.0000                   (X_U4.54)    1.0000                       

(X_U4.90)  -40.6060                   (X_U4.91)   40.0000                       

(X_U4.92)  -40.0000                   (X_U4.99)    7.0000                   




    VOLTAGE SOURCE CURRENTS
    NAME         CURRENT

    V_V1        -5.224E-03
    V_V3        -3.403E-10
    X_U1.vb      1.433E-05
    X_U1.vc      1.282E-11
    X_U1.ve     -4.060E-02
    X_U1.vlim   -4.060E-02
    X_U1.vlp    -8.060E-11
    X_U1.vln     1.113E-05
    X_U3.vb      3.120E-09
    X_U3.vc      9.516E-12
    X_U3.ve      2.348E-12
    X_U3.vlim    1.353E-03
    X_U3.vlp    -3.865E-11
    X_U3.vln    -4.136E-11
    X_U2.vb      1.455E-05
    X_U2.vc      1.282E-11
    X_U2.ve     -3.925E-02
    X_U2.vlim   -4.061E-02
    X_U2.vlp    -8.061E-11
    X_U2.vln     1.150E-05
    X_U4.vb      1.498E-05
    X_U4.vc      1.282E-11
    X_U4.ve     -4.061E-02
    X_U4.vlim   -4.061E-02
    X_U4.vlp    -8.061E-11
    X_U4.vln     1.183E-05

    TOTAL POWER DISSIPATION   1.92E-01  WATTS


**** 05/26/24 11:46:08 ***** PSpice 23.1.0 (6 March 2024) ***** ID# 0 ********

 ** Profile: "SCHEMATIC1-Performace Analysis"  [ C:\Users\Lenovo\Desktop\final grade cad project\Final Grade CAD Project-PSpiceFiles\


 ****     INITIAL TRANSIENT SOLUTION       TEMPERATURE =   27.000 DEG C

                      MONTE CARLO PASS 100

******************************************************************************



 NODE   VOLTAGE     NODE   VOLTAGE     NODE   VOLTAGE     NODE   VOLTAGE


(  OUT)     .1837  (  VCC)   14.0000  (N35941)    7.0000 (N35971)     .1843     

(N36087)     .1846 (N36097)     .1845 (N36167)     .1837 (N36179)     .1837     

(N36339)    9.8906 (N36483)    3.5131 (N36491)    2.1473 (N36511)    7.4325     

(N36555)    0.0000 (N36641)    2.7921 (N36689)    3.5130 (N36823)    1.5531     

(N36983)   14.0000 (N37039)   14.0000 (N37147)     .1837 (X_U1.6)    1.4330     

(X_U1.7)   -1.8465 (X_U1.8)   -1.8465 (X_U1.9)    0.0000 (X_U2.6)    1.4555     

(X_U2.7)   -1.8456 (X_U2.8)   -1.8456 (X_U2.9)    0.0000 (X_U3.6) 309.0E-06     

(X_U3.7)    3.5817 (X_U3.8)    3.5817 (X_U3.9)    0.0000 (X_U4.6)    1.4983     

(X_U4.7)   -1.8465 (X_U4.8)   -1.8465 (X_U4.9)    0.0000 (N361310)     .1837    

(X_U1.10)    -.4538                   (X_U1.11)   13.9240                       

(X_U1.12)   14.0000                   (X_U1.13)    -.4270                       

(X_U1.14)    -.4537                   (X_U1.53)   13.0000                       

(X_U1.54)    1.0000                   (X_U1.90)  -40.6040                       

(X_U1.91)   40.0000                   (X_U1.92)  -40.0000                       

(X_U1.99)    7.0000                   (X_U2.10)    1.5091                       

(X_U2.11)   13.9230                   (X_U2.12)   14.0000                       

(X_U2.13)    1.5362                   (X_U2.14)    1.5091                       

(X_U2.53)   13.0000                   (X_U2.54)    1.0000                       

(X_U2.90)  -40.6050                   (X_U2.91)   40.0000                       

(X_U2.92)  -40.0000                   (X_U2.99)    7.0000                       

(X_U3.10)    2.9061                   (X_U3.11)   13.9610                       

(X_U3.12)   13.9610                   (X_U3.13)    2.9197                       

(X_U3.14)    2.9197                   (X_U3.53)   13.0000                       

(X_U3.54)    1.0000                   (X_U3.90)    1.3727                       

(X_U3.91)   40.0000                   (X_U3.92)  -40.0000                       

(X_U3.99)    7.0000                   (X_U4.10)    6.7930                       

(X_U4.11)   13.9210                   (X_U4.12)   14.0000                       

(X_U4.13)    6.8208                   (X_U4.14)    6.7930                       

(X_U4.53)   13.0000                   (X_U4.54)    1.0000                       

(X_U4.90)  -40.6060                   (X_U4.91)   40.0000                       

(X_U4.92)  -40.0000                   (X_U4.99)    7.0000                   




    VOLTAGE SOURCE CURRENTS
    NAME         CURRENT

    V_V1        -5.227E-03
    V_V3        -3.403E-10
    X_U1.vb      1.433E-05
    X_U1.vc      1.282E-11
    X_U1.ve     -4.060E-02
    X_U1.vlim   -4.060E-02
    X_U1.vlp    -8.060E-11
    X_U1.vln     1.113E-05
    X_U3.vb      3.090E-09
    X_U3.vc      9.488E-12
    X_U3.ve      2.377E-12
    X_U3.vlim    1.373E-03
    X_U3.vlp    -3.863E-11
    X_U3.vln    -4.138E-11
    X_U2.vb      1.456E-05
    X_U2.vc      1.282E-11
    X_U2.ve     -3.923E-02
    X_U2.vlim   -4.061E-02
    X_U2.vlp    -8.061E-11
    X_U2.vln     1.151E-05
    X_U4.vb      1.498E-05
    X_U4.vc      1.282E-11
    X_U4.ve     -4.061E-02
    X_U4.vlim   -4.061E-02
    X_U4.vlp    -8.061E-11
    X_U4.vln     1.182E-05

    TOTAL POWER DISSIPATION   1.92E-01  WATTS


**** 05/26/24 11:46:08 ***** PSpice 23.1.0 (6 March 2024) ***** ID# 0 ********

 ** Profile: "SCHEMATIC1-Performace Analysis"  [ C:\Users\Lenovo\Desktop\final grade cad project\Final Grade CAD Project-PSpiceFiles\


 ****     SORTED DEVIATIONS OF V(OUT)      TEMPERATURE =   27.000 DEG C

                      MONTE CARLO SUMMARY

******************************************************************************





Mean Deviation =   -6.9238E-09
Sigma          =    7.7278E-09

 RUN                    MAX DEVIATION FROM NOMINAL

Pass   14             14.9010E-09  (1.93 sigma)  lower  at T =  200.0000E-12
                        ( 100   % of Nominal)

Pass   98             14.9010E-09  (1.93 sigma)  lower  at T =  200.0000E-12
                        ( 100   % of Nominal)

Pass    4             14.9010E-09  (1.93 sigma)  higher  at T =  200.0000E-12
                        ( 100   % of Nominal)

Pass    5             14.9010E-09  (1.93 sigma)  lower  at T =  200.0000E-12
                        ( 100   % of Nominal)

Pass    6             14.9010E-09  (1.93 sigma)  lower  at T =  200.0000E-12
                        ( 100   % of Nominal)

Pass   63             14.9010E-09  (1.93 sigma)  lower  at T =  200.0000E-12
                        ( 100   % of Nominal)

Pass   52             14.9010E-09  (1.93 sigma)  lower  at T =  200.0000E-12
                        ( 100   % of Nominal)

Pass    9             14.9010E-09  (1.93 sigma)  lower  at T =  200.0000E-12
                        ( 100   % of Nominal)

Pass   10             14.9010E-09  (1.93 sigma)  lower  at T =  200.0000E-12
                        ( 100   % of Nominal)

Pass   53             14.9010E-09  (1.93 sigma)  lower  at T =  200.0000E-12
                        ( 100   % of Nominal)

Pass   12             14.9010E-09  (1.93 sigma)  lower  at T =  200.0000E-12
                        ( 100   % of Nominal)

Pass   55             14.9010E-09  (1.93 sigma)  lower  at T =  200.0000E-12
                        ( 100   % of Nominal)

Pass   26             14.9010E-09  (1.93 sigma)  lower  at T =  200.0000E-12
                        ( 100   % of Nominal)

Pass   15             14.9010E-09  (1.93 sigma)  lower  at T =  200.0000E-12
                        ( 100   % of Nominal)

Pass   56             14.9010E-09  (1.93 sigma)  lower  at T =  200.0000E-12
                        ( 100   % of Nominal)

Pass   57             14.9010E-09  (1.93 sigma)  lower  at T =  200.0000E-12
                        ( 100   % of Nominal)

Pass   18             14.9010E-09  (1.93 sigma)  lower  at T =  200.0000E-12
                        ( 100   % of Nominal)

Pass   19             14.9010E-09  (1.93 sigma)  lower  at T =  200.0000E-12
                        ( 100   % of Nominal)

Pass   62             14.9010E-09  (1.93 sigma)  lower  at T =  200.0000E-12
                        ( 100   % of Nominal)

Pass   69             14.9010E-09  (1.93 sigma)  lower  at T =  200.0000E-12
                        ( 100   % of Nominal)

Pass   70             14.9010E-09  (1.93 sigma)  lower  at T =  200.0000E-12
                        ( 100   % of Nominal)

Pass   74             14.9010E-09  (1.93 sigma)  lower  at T =  200.0000E-12
                        ( 100   % of Nominal)

Pass   88             14.9010E-09  (1.93 sigma)  lower  at T =  200.0000E-12
                        ( 100   % of Nominal)

Pass   81             14.9010E-09  (1.93 sigma)  lower  at T =  200.0000E-12
                        ( 100   % of Nominal)

Pass   83             14.9010E-09  (1.93 sigma)  lower  at T =  200.0000E-12
                        ( 100   % of Nominal)

Pass   27             14.9010E-09  (1.93 sigma)  lower  at T =  200.0000E-12
                        ( 100   % of Nominal)

Pass   84             14.9010E-09  (1.93 sigma)  lower  at T =  200.0000E-12
                        ( 100   % of Nominal)

Pass   29             14.9010E-09  (1.93 sigma)  lower  at T =  200.0000E-12
                        ( 100   % of Nominal)

Pass   30             14.9010E-09  (1.93 sigma)  lower  at T =  200.0000E-12
                        ( 100   % of Nominal)

Pass   85             14.9010E-09  (1.93 sigma)  lower  at T =  200.0000E-12
                        ( 100   % of Nominal)

Pass   87             14.9010E-09  (1.93 sigma)  lower  at T =  200.0000E-12
                        ( 100   % of Nominal)

Pass   89             14.9010E-09  (1.93 sigma)  lower  at T =  200.0000E-12
                        ( 100   % of Nominal)

Pass   91             14.9010E-09  (1.93 sigma)  lower  at T =  200.0000E-12
                        ( 100   % of Nominal)

Pass   35             14.9010E-09  (1.93 sigma)  lower  at T =  200.0000E-12
                        ( 100   % of Nominal)

Pass   36             14.9010E-09  (1.93 sigma)  lower  at T =  200.0000E-12
                        ( 100   % of Nominal)

Pass   92             14.9010E-09  (1.93 sigma)  lower  at T =  200.0000E-12
                        ( 100   % of Nominal)

Pass   38             14.9010E-09  (1.93 sigma)  lower  at T =  200.0000E-12
                        ( 100   % of Nominal)

Pass   39             14.9010E-09  (1.93 sigma)  lower  at T =  200.0000E-12
                        ( 100   % of Nominal)

Pass   40             14.9010E-09  (1.93 sigma)  lower  at T =  200.0000E-12
                        ( 100   % of Nominal)

Pass   41             14.9010E-09  (1.93 sigma)  lower  at T =  200.0000E-12
                        ( 100   % of Nominal)

Pass   42             14.9010E-09  (1.93 sigma)  lower  at T =  200.0000E-12
                        ( 100   % of Nominal)

Pass   93             14.9010E-09  (1.93 sigma)  lower  at T =  200.0000E-12
                        ( 100   % of Nominal)

Pass   94             14.9010E-09  (1.93 sigma)  lower  at T =  200.0000E-12
                        ( 100   % of Nominal)

Pass   95             14.9010E-09  (1.93 sigma)  lower  at T =  200.0000E-12
                        ( 100   % of Nominal)

Pass   46             14.9010E-09  (1.93 sigma)  lower  at T =  200.0000E-12
                        ( 100   % of Nominal)

Pass   47             14.9010E-09  (1.93 sigma)  lower  at T =  200.0000E-12
                        ( 100   % of Nominal)

Pass   48             14.9010E-09  (1.93 sigma)  lower  at T =  200.0000E-12
                        ( 100   % of Nominal)

Pass   49             14.9010E-09  (1.93 sigma)  lower  at T =  200.0000E-12
                        ( 100   % of Nominal)

Pass    3               0       (0.00 sigma)  unchanged  at T =    0     

Pass    7               0       (0.00 sigma)  unchanged  at T =    0     
                        ( 100   % of Nominal)

Pass    8               0       (0.00 sigma)  unchanged  at T =    0     
                        ( 100   % of Nominal)

Pass   11               0       (0.00 sigma)  unchanged  at T =    0     
                        ( 100   % of Nominal)

Pass   13               0       (0.00 sigma)  unchanged  at T =    0     
                        ( 100   % of Nominal)

Pass   16               0       (0.00 sigma)  unchanged  at T =    0     
                        ( 100   % of Nominal)

Pass   17               0       (0.00 sigma)  unchanged  at T =    0     
                        ( 100   % of Nominal)

Pass   20               0       (0.00 sigma)  unchanged  at T =    0     
                        ( 100   % of Nominal)

Pass   21               0       (0.00 sigma)  unchanged  at T =    0     
                        ( 100   % of Nominal)

Pass   22               0       (0.00 sigma)  unchanged  at T =    0     
                        ( 100   % of Nominal)

Pass   23               0       (0.00 sigma)  unchanged  at T =    0     
                        ( 100   % of Nominal)

Pass   24               0       (0.00 sigma)  unchanged  at T =    0     
                        ( 100   % of Nominal)

Pass   25               0       (0.00 sigma)  unchanged  at T =    0     
                        ( 100   % of Nominal)

Pass    2               0       (0.00 sigma)  unchanged  at T =    0     

Pass   28               0       (0.00 sigma)  unchanged  at T =    0     
                        ( 100   % of Nominal)

Pass   31               0       (0.00 sigma)  unchanged  at T =    0     
                        ( 100   % of Nominal)

Pass   32               0       (0.00 sigma)  unchanged  at T =    0     
                        ( 100   % of Nominal)

Pass   33               0       (0.00 sigma)  unchanged  at T =    0     
                        ( 100   % of Nominal)

Pass   34               0       (0.00 sigma)  unchanged  at T =    0     
                        ( 100   % of Nominal)

Pass   37               0       (0.00 sigma)  unchanged  at T =    0     
                        ( 100   % of Nominal)

Pass   43               0       (0.00 sigma)  unchanged  at T =    0     
                        ( 100   % of Nominal)

Pass   44               0       (0.00 sigma)  unchanged  at T =    0     
                        ( 100   % of Nominal)

Pass   45               0       (0.00 sigma)  unchanged  at T =    0     
                        ( 100   % of Nominal)

Pass   50               0       (0.00 sigma)  unchanged  at T =    0     
                        ( 100   % of Nominal)

Pass   60               0       (0.00 sigma)  unchanged  at T =    0     
                        ( 100   % of Nominal)

Pass   75               0       (0.00 sigma)  unchanged  at T =    0     
                        ( 100   % of Nominal)

Pass   61               0       (0.00 sigma)  unchanged  at T =    0     
                        ( 100   % of Nominal)

Pass   77               0       (0.00 sigma)  unchanged  at T =    0     
                        ( 100   % of Nominal)

Pass   78               0       (0.00 sigma)  unchanged  at T =    0     
                        ( 100   % of Nominal)

Pass   79               0       (0.00 sigma)  unchanged  at T =    0     
                        ( 100   % of Nominal)

Pass   80               0       (0.00 sigma)  unchanged  at T =    0     
                        ( 100   % of Nominal)

Pass   54               0       (0.00 sigma)  unchanged  at T =    0     
                        ( 100   % of Nominal)

Pass   82               0       (0.00 sigma)  unchanged  at T =    0     
                        ( 100   % of Nominal)

Pass   51               0       (0.00 sigma)  unchanged  at T =    0     
                        ( 100   % of Nominal)

Pass   64               0       (0.00 sigma)  unchanged  at T =    0     
                        ( 100   % of Nominal)

Pass   65               0       (0.00 sigma)  unchanged  at T =    0     
                        ( 100   % of Nominal)

Pass   86               0       (0.00 sigma)  unchanged  at T =    0     
                        ( 100   % of Nominal)

Pass   66               0       (0.00 sigma)  unchanged  at T =    0     
                        ( 100   % of Nominal)

Pass   76               0       (0.00 sigma)  unchanged  at T =    0     
                        ( 100   % of Nominal)

Pass   67               0       (0.00 sigma)  unchanged  at T =    0     
                        ( 100   % of Nominal)

Pass   90               0       (0.00 sigma)  unchanged  at T =    0     
                        ( 100   % of Nominal)

Pass   68               0       (0.00 sigma)  unchanged  at T =    0     
                        ( 100   % of Nominal)

Pass   58               0       (0.00 sigma)  unchanged  at T =    0     
                        ( 100   % of Nominal)

Pass   59               0       (0.00 sigma)  unchanged  at T =    0     
                        ( 100   % of Nominal)

Pass   71               0       (0.00 sigma)  unchanged  at T =    0     
                        ( 100   % of Nominal)

Pass   72               0       (0.00 sigma)  unchanged  at T =    0     
                        ( 100   % of Nominal)

Pass   96               0       (0.00 sigma)  unchanged  at T =    0     
                        ( 100   % of Nominal)

Pass   97               0       (0.00 sigma)  unchanged  at T =    0     
                        ( 100   % of Nominal)

Pass   73               0       (0.00 sigma)  unchanged  at T =    0     
                        ( 100   % of Nominal)

Pass   99               0       (0.00 sigma)  unchanged  at T =    0     
                        ( 100   % of Nominal)

Pass  100               0       (0.00 sigma)  unchanged  at T =    0     
                        ( 100   % of Nominal)



          JOB CONCLUDED

**** 05/26/24 11:46:08 ***** PSpice 23.1.0 (6 March 2024) ***** ID# 0 ********

 ** Profile: "SCHEMATIC1-Performace Analysis"  [ C:\Users\Lenovo\Desktop\final grade cad project\Final Grade CAD Project-PSpiceFiles\


 ****     JOB STATISTICS SUMMARY


******************************************************************************



  Total job time (using Solver 1)   =        5.67
